data/pglib_opf_case4601_goc_storage.m
%%%%%%%%%%%%%%%%%%%%%%%%%%%%%%%%%%%%%%%%%%%%%%%%%%%%%%%%%%%%%%%%%%%%%%%%%%%
%%%%                                                                  %%%%%
%%%%    IEEE PES Power Grid Library - Optimal Power Flow - v23.07     %%%%%
%%%%          (https://github.com/power-grid-lib/pglib-opf)           %%%%%
%%%%               Benchmark Group - Typical Operations               %%%%%
%%%%                         23 - July - 2023                         %%%%%
%%%%                                                                  %%%%%
%%%%%%%%%%%%%%%%%%%%%%%%%%%%%%%%%%%%%%%%%%%%%%%%%%%%%%%%%%%%%%%%%%%%%%%%%%%
%
%   This is a synthetic 4,601 bus case, developed for use in ARPA-e's Grid
%   Optimization Competition, Challenge 1.
%
%   https://gocompetition.energy.gov/challenges/22/datasets
%
%   Copyright (c) 2020 University of Wisconsin-Madison
%   https://dev.epigrids.discovery.wisc.edu/
%   Licensed under the Creative Commons Attribution 4.0 International license,
%   http://creativecommons.org/licenses/by/4.0/
%
% Modified to have additional storage capacity and increased gencost
function mpc = pglib_opf_case4601_goc
mpc.version = '2';
mpc.baseMVA = 100.0;

%% bus data
%	bus_i	type	Pd	Qd	Gs	Bs	area	Vm	Va	baseKV	zone	Vmax	Vmin
mpc.bus = [
	1	 1	 0.0	 0.0	 0.0	 0.0	 1	    0.97500	    0.00000	 69.0	 1	    1.05000	    0.90000;
	2	 2	 0.0	 0.0	 0.0	 0.0	 1	    0.97500	    0.00000	 138.0	 1	    1.05000	    0.90000;
	3	 1	 0.0	 0.0	 0.0	 0.0	 1	    0.97500	    0.00000	 69.0	 1	    1.05000	    0.90000;
	4	 1	 0.0	 0.0	 0.0	 0.0	 1	    0.97500	    0.00000	 69.0	 1	    1.05000	    0.90000;
	5	 1	 0.0	 0.0	 0.0	 0.0	 1	    0.97500	    0.00000	 138.0	 1	    1.05000	    0.90000;
	6	 1	 0.0	 0.0	 0.0	 0.0	 1	    0.97500	    0.00000	 69.0	 1	    1.05000	    0.90000;
	7	 1	 0.0	 0.0	 0.0	 0.0	 1	    0.97500	    0.00000	 69.0	 1	    1.05000	    0.90000;
	8	 1	 0.0	 0.0	 0.0	 0.0	 1	    0.97500	    0.00000	 69.0	 1	    1.05000	    0.90000;
	9	 1	 0.0	 0.0	 0.0	 0.0	 1	    0.97500	    0.00000	 69.0	 1	    1.05000	    0.90000;
	10	 1	 0.0	 0.0	 0.0	 0.0	 1	    0.97500	    0.00000	 69.0	 1	    1.05000	    0.90000;
	11	 2	 0.0	 0.0	 0.0	 0.0	 1	    0.97500	    0.00000	 69.0	 1	    1.05000	    0.90000;
	12	 1	 0.0	 0.0	 0.0	 0.0	 1	    0.97500	    0.00000	 69.0	 1	    1.05000	    0.90000;
	13	 1	 0.0	 0.0	 0.0	 0.0	 1	    0.97500	    0.00000	 69.0	 1	    1.05000	    0.90000;
	14	 1	 0.0	 0.0	 0.0	 0.0	 1	    0.97500	    0.00000	 69.0	 1	    1.05000	    0.90000;
	15	 1	 0.0	 0.0	 0.0	 0.0	 1	    0.97500	    0.00000	 69.0	 1	    1.05000	    0.90000;
	16	 1	 0.0	 0.0	 0.0	 0.0	 1	    0.97500	    0.00000	 69.0	 1	    1.05000	    0.90000;
	17	 1	 0.0	 0.0	 0.0	 0.0	 1	    0.97500	    0.00000	 69.0	 1	    1.05000	    0.90000;
	18	 1	 0.0	 0.0	 0.0	 0.0	 1	    0.97500	    0.00000	 69.0	 1	    1.05000	    0.90000;
	19	 2	 0.0	 0.0	 0.0	 0.0	 1	    0.97500	    0.00000	 69.0	 1	    1.05000	    0.90000;
	20	 2	 0.0	 0.0	 0.0	 0.0	 1	    0.97500	    0.00000	 138.0	 1	    1.05000	    0.90000;
	21	 2	 0.0	 0.0	 0.0	 0.0	 1	    0.97500	    0.00000	 69.0	 1	    1.05000	    0.90000;
	22	 1	 0.0	 0.0	 0.0	 0.0	 1	    0.97500	    0.00000	 69.0	 1	    1.05000	    0.90000;
	23	 1	 0.0	 0.0	 0.0	 0.0	 1	    0.97500	    0.00000	 69.0	 1	    1.05000	    0.90000;
	24	 2	 0.0	 0.0	 0.0	 0.0	 1	    0.97500	    0.00000	 138.0	 1	    1.05000	    0.90000;
	25	 2	 0.0	 0.0	 0.0	 0.0	 1	    0.97500	    0.00000	 69.0	 1	    1.05000	    0.90000;
	26	 2	 0.0	 0.0	 0.0	 0.0	 1	    0.97500	    0.00000	 69.0	 1	    1.05000	    0.90000;
	27	 2	 0.0	 0.0	 0.0	 0.0	 1	    0.97500	    0.00000	 69.0	 1	    1.05000	    0.90000;
	28	 1	 0.0	 0.0	 0.0	 0.0	 1	    0.97500	    0.00000	 69.0	 1	    1.05000	    0.90000;
	29	 2	 0.0	 0.0	 0.0	 0.0	 1	    0.97500	    0.00000	 69.0	 1	    1.05000	    0.90000;
	30	 2	 0.0	 0.0	 0.0	 0.0	 1	    0.97500	    0.00000	 69.0	 1	    1.05000	    0.90000;
	31	 2	 0.0	 0.0	 0.0	 0.0	 1	    0.97500	    0.00000	 69.0	 1	    1.05000	    0.90000;
	32	 1	 0.0	 0.0	 0.0	 0.0	 1	    0.97500	    0.00000	 69.0	 1	    1.05000	    0.90000;
	33	 1	 0.0	 0.0	 0.0	 0.0	 1	    0.97500	    0.00000	 69.0	 1	    1.05000	    0.90000;
	34	 1	 0.0	 0.0	 0.0	 0.0	 1	    0.97500	    0.00000	 69.0	 1	    1.05000	    0.90000;
	35	 1	 0.0	 0.0	 0.0	 0.0	 1	    0.97500	    0.00000	 69.0	 1	    1.05000	    0.90000;
	36	 1	 0.0	 0.0	 0.0	 0.0	 1	    0.97500	    0.00000	 69.0	 1	    1.05000	    0.90000;
	37	 1	 0.0	 0.0	 0.0	 0.0	 1	    0.97500	    0.00000	 69.0	 1	    1.05000	    0.90000;
	38	 1	 0.0	 0.0	 0.0	 0.0	 1	    0.97500	    0.00000	 69.0	 1	    1.05000	    0.90000;
	39	 1	 0.0	 0.0	 0.0	 0.0	 1	    0.97500	    0.00000	 69.0	 1	    1.05000	    0.90000;
	40	 1	 0.0	 0.0	 0.0	 0.0	 1	    0.97500	    0.00000	 69.0	 1	    1.05000	    0.90000;
	41	 1	 0.0	 0.0	 0.0	 0.0	 1	    0.97500	    0.00000	 69.0	 1	    1.05000	    0.90000;
	42	 1	 0.0	 0.0	 0.0	 0.0	 1	    0.97500	    0.00000	 69.0	 1	    1.05000	    0.90000;
	43	 1	 0.0	 0.0	 0.0	 0.0	 1	    0.97500	    0.00000	 69.0	 1	    1.05000	    0.90000;
	44	 1	 0.0	 0.0	 0.0	 0.0	 1	    0.97500	    0.00000	 69.0	 1	    1.05000	    0.90000;
	45	 1	 0.0	 0.0	 0.0	 0.0	 1	    0.97500	    0.00000	 69.0	 1	    1.05000	    0.90000;
	46	 1	 0.0	 0.0	 0.0	 0.0	 1	    0.97500	    0.00000	 69.0	 1	    1.05000	    0.90000;
	47	 1	 0.0	 0.0	 0.0	 0.0	 1	    0.97500	    0.00000	 138.0	 1	    1.05000	    0.90000;
	48	 1	 0.0	 0.0	 0.0	 0.0	 1	    0.97500	    0.00000	 69.0	 1	    1.05000	    0.90000;
	49	 1	 0.0	 0.0	 0.0	 0.0	 1	    0.97500	    0.00000	 69.0	 1	    1.05000	    0.90000;
	50	 2	 0.0	 0.0	 0.0	 0.0	 1	    0.97500	    0.00000	 69.0	 1	    1.05000	    0.90000;
	51	 1	 0.0	 0.0	 0.0	 0.0	 1	    0.97500	    0.00000	 69.0	 1	    1.05000	    0.90000;
	52	 1	 0.0	 0.0	 0.0	 0.0	 1	    0.97500	    0.00000	 69.0	 1	    1.05000	    0.90000;
	53	 2	 0.0	 0.0	 0.0	 0.0	 1	    0.97500	    0.00000	 69.0	 1	    1.05000	    0.90000;
	54	 1	 0.0	 0.0	 0.0	 0.0	 1	    0.97500	    0.00000	 69.0	 1	    1.05000	    0.90000;
	55	 2	 0.0	 0.0	 0.0	 0.0	 1	    0.97500	    0.00000	 69.0	 1	    1.05000	    0.90000;
	56	 1	 0.0	 0.0	 0.0	 0.0	 1	    0.97500	    0.00000	 69.0	 1	    1.05000	    0.90000;
	57	 2	 0.0	 0.0	 0.0	 0.0	 1	    0.97500	    0.00000	 69.0	 1	    1.05000	    0.90000;
	58	 1	 0.0	 0.0	 0.0	 0.0	 1	    0.97500	    0.00000	 69.0	 1	    1.05000	    0.90000;
	59	 1	 0.0	 0.0	 0.0	 0.0	 1	    0.97500	    0.00000	 69.0	 1	    1.05000	    0.90000;
	60	 1	 0.0	 0.0	 0.0	 0.0	 1	    0.97500	    0.00000	 69.0	 1	    1.05000	    0.90000;
	61	 1	 0.0	 0.0	 0.0	 0.0	 1	    0.97500	    0.00000	 69.0	 1	    1.05000	    0.90000;
	62	 2	 0.0	 0.0	 0.0	 0.0	 1	    0.97500	    0.00000	 69.0	 1	    1.05000	    0.90000;
	63	 2	 0.0	 0.0	 0.0	 0.0	 1	    0.97500	    0.00000	 138.0	 1	    1.05000	    0.90000;
	64	 1	 0.0	 0.0	 0.0	 0.0	 1	    0.97500	    0.00000	 69.0	 1	    1.05000	    0.90000;
	65	 2	 0.0	 0.0	 0.0	 0.0	 1	    0.97500	    0.00000	 69.0	 1	    1.05000	    0.90000;
	66	 2	 0.0	 0.0	 0.0	 0.0	 1	    0.97500	    0.00000	 69.0	 1	    1.05000	    0.90000;
	67	 1	 0.0	 0.0	 0.0	 0.0	 1	    0.97500	    0.00000	 69.0	 1	    1.05000	    0.90000;
	68	 2	 0.0	 0.0	 0.0	 0.0	 1	    0.97500	    0.00000	 69.0	 1	    1.05000	    0.90000;
	69	 1	 0.0	 0.0	 0.0	 0.0	 1	    0.97500	    0.00000	 69.0	 1	    1.05000	    0.90000;
	70	 2	 0.0	 0.0	 0.0	 0.0	 1	    0.97500	    0.00000	 69.0	 1	    1.05000	    0.90000;
	71	 2	 0.0	 0.0	 0.0	 0.0	 1	    0.97500	    0.00000	 69.0	 1	    1.05000	    0.90000;
	72	 1	 0.0	 0.0	 0.0	 0.0	 1	    0.97500	    0.00000	 69.0	 1	    1.05000	    0.90000;
	73	 2	 0.0	 0.0	 0.0	 0.0	 1	    0.97500	    0.00000	 69.0	 1	    1.05000	    0.90000;
	74	 1	 0.0	 0.0	 0.0	 0.0	 1	    0.97500	    0.00000	 69.0	 1	    1.05000	    0.90000;
	75	 1	 0.0	 0.0	 0.0	 0.0	 1	    0.97500	    0.00000	 69.0	 1	    1.05000	    0.90000;
	76	 2	 0.0	 0.0	 0.0	 0.0	 1	    0.97500	    0.00000	 138.0	 1	    1.05000	    0.90000;
	77	 1	 0.0	 0.0	 0.0	 0.0	 1	    0.97500	    0.00000	 69.0	 1	    1.05000	    0.90000;
	78	 1	 0.0	 0.0	 0.0	 0.0	 1	    0.97500	    0.00000	 69.0	 1	    1.05000	    0.90000;
	79	 2	 0.0	 0.0	 0.0	 0.0	 1	    0.97500	    0.00000	 138.0	 1	    1.05000	    0.90000;
	80	 1	 0.0	 0.0	 0.0	 0.0	 1	    0.97500	    0.00000	 69.0	 1	    1.05000	    0.90000;
	81	 1	 0.0	 0.0	 0.0	 0.0	 1	    0.97500	    0.00000	 69.0	 1	    1.05000	    0.90000;
	82	 1	 0.0	 0.0	 0.0	 0.0	 1	    0.97500	    0.00000	 69.0	 1	    1.05000	    0.90000;
	83	 1	 0.0	 0.0	 0.0	 0.0	 1	    0.97500	    0.00000	 69.0	 1	    1.05000	    0.90000;
	84	 1	 0.0	 0.0	 0.0	 0.0	 1	    0.97500	    0.00000	 69.0	 1	    1.05000	    0.90000;
	85	 1	 0.0	 0.0	 0.0	 0.0	 1	    0.97500	    0.00000	 138.0	 1	    1.05000	    0.90000;
	86	 1	 0.0	 0.0	 0.0	 0.0	 1	    0.97500	    0.00000	 69.0	 1	    1.05000	    0.90000;
	87	 2	 0.0	 0.0	 0.0	 0.0	 1	    0.97500	    0.00000	 69.0	 1	    1.05000	    0.90000;
	88	 2	 0.0	 0.0	 0.0	 0.0	 1	    0.97500	    0.00000	 69.0	 1	    1.05000	    0.90000;
	89	 1	 0.0	 0.0	 0.0	 0.0	 1	    0.97500	    0.00000	 69.0	 1	    1.05000	    0.90000;
	90	 1	 0.0	 0.0	 0.0	 0.0	 1	    0.97500	    0.00000	 69.0	 1	    1.05000	    0.90000;
	91	 2	 0.0	 0.0	 0.0	 0.0	 1	    0.97500	    0.00000	 69.0	 1	    1.05000	    0.90000;
	92	 2	 0.0	 0.0	 0.0	 0.0	 1	    0.97500	    0.00000	 69.0	 1	    1.05000	    0.90000;
	93	 1	 0.0	 0.0	 0.0	 0.0	 1	    0.97500	    0.00000	 69.0	 1	    1.05000	    0.90000;
	94	 1	 0.0	 0.0	 0.0	 0.0	 1	    0.97500	    0.00000	 69.0	 1	    1.05000	    0.90000;
	95	 2	 0.0	 0.0	 0.0	 0.0	 1	    0.97500	    0.00000	 69.0	 1	    1.05000	    0.90000;
	96	 1	 0.0	 0.0	 0.0	 0.0	 1	    0.97500	    0.00000	 69.0	 1	    1.05000	    0.90000;
	97	 2	 0.0	 0.0	 0.0	 0.0	 1	    0.97500	    0.00000	 69.0	 1	    1.05000	    0.90000;
	98	 1	 0.0	 0.0	 0.0	 0.0	 1	    0.97500	    0.00000	 69.0	 1	    1.05000	    0.90000;
	99	 1	 0.0	 0.0	 0.0	 0.0	 1	    0.97500	    0.00000	 69.0	 1	    1.05000	    0.90000;
	100	 1	 0.0	 0.0	 0.0	 0.0	 1	    0.97500	    0.00000	 69.0	 1	    1.05000	    0.90000;
	101	 2	 0.0	 0.0	 0.0	 0.0	 1	    0.97500	    0.00000	 69.0	 1	    1.05000	    0.90000;
	102	 2	 0.0	 0.0	 0.0	 0.0	 1	    0.97500	    0.00000	 138.0	 1	    1.05000	    0.90000;
	103	 1	 0.0	 0.0	 0.0	 0.0	 1	    0.97500	    0.00000	 69.0	 1	    1.05000	    0.90000;
	104	 2	 0.0	 0.0	 0.0	 0.0	 1	    0.97500	    0.00000	 69.0	 1	    1.05000	    0.90000;
	105	 1	 0.0	 0.0	 0.0	 0.0	 1	    0.97500	    0.00000	 69.0	 1	    1.05000	    0.90000;
	106	 1	 0.0	 0.0	 0.0	 0.0	 1	    0.97500	    0.00000	 138.0	 1	    1.05000	    0.90000;
	107	 1	 0.0	 0.0	 0.0	 0.0	 1	    0.97500	    0.00000	 69.0	 1	    1.05000	    0.90000;
	108	 1	 0.0	 0.0	 0.0	 0.0	 1	    0.97500	    0.00000	 69.0	 1	    1.05000	    0.90000;
	109	 1	 0.0	 0.0	 0.0	 0.0	 1	    0.97500	    0.00000	 69.0	 1	    1.05000	    0.90000;
	110	 1	 0.0	 0.0	 0.0	 0.0	 1	    0.97500	    0.00000	 69.0	 1	    1.05000	    0.90000;
	111	 1	 0.0	 0.0	 0.0	 0.0	 1	    0.97500	    0.00000	 69.0	 1	    1.05000	    0.90000;
	112	 2	 0.0	 0.0	 0.0	 0.0	 1	    0.97500	    0.00000	 69.0	 1	    1.05000	    0.90000;
	113	 2	 0.0	 0.0	 0.0	 0.0	 1	    0.97500	    0.00000	 69.0	 1	    1.05000	    0.90000;
	114	 2	 0.0	 0.0	 0.0	 0.0	 1	    0.97500	    0.00000	 69.0	 1	    1.05000	    0.90000;
	115	 1	 0.0	 0.0	 0.0	 0.0	 1	    0.97500	    0.00000	 69.0	 1	    1.05000	    0.90000;
	116	 1	 0.0	 0.0	 0.0	 0.0	 1	    0.97500	    0.00000	 69.0	 1	    1.05000	    0.90000;
	117	 1	 0.0	 0.0	 0.0	 0.0	 1	    0.97500	    0.00000	 69.0	 1	    1.05000	    0.90000;
	118	 1	 0.0	 0.0	 0.0	 0.0	 1	    0.97500	    0.00000	 69.0	 1	    1.05000	    0.90000;
	119	 1	 0.0	 0.0	 0.0	 0.0	 1	    0.97500	    0.00000	 69.0	 1	    1.05000	    0.90000;
	120	 1	 0.0	 0.0	 0.0	 0.0	 1	    0.97500	    0.00000	 69.0	 1	    1.05000	    0.90000;
	121	 1	 0.0	 0.0	 0.0	 0.0	 1	    0.97500	    0.00000	 69.0	 1	    1.05000	    0.90000;
	122	 1	 0.0	 0.0	 0.0	 0.0	 1	    0.97500	    0.00000	 69.0	 1	    1.05000	    0.90000;
	123	 2	 0.0	 0.0	 0.0	 0.0	 1	    0.97500	    0.00000	 69.0	 1	    1.05000	    0.90000;
	124	 1	 0.0	 0.0	 0.0	 0.0	 1	    0.97500	    0.00000	 69.0	 1	    1.05000	    0.90000;
	125	 1	 0.0	 0.0	 0.0	 0.0	 1	    0.97500	    0.00000	 69.0	 1	    1.05000	    0.90000;
	126	 2	 0.0	 0.0	 0.0	 0.0	 1	    0.97500	    0.00000	 69.0	 1	    1.05000	    0.90000;
	127	 1	 0.0	 0.0	 0.0	 0.0	 1	    0.97500	    0.00000	 69.0	 1	    1.05000	    0.90000;
	128	 2	 0.0	 0.0	 0.0	 0.0	 1	    0.97500	    0.00000	 69.0	 1	    1.05000	    0.90000;
	129	 2	 0.0	 0.0	 0.0	 0.0	 1	    0.97500	    0.00000	 69.0	 1	    1.05000	    0.90000;
	130	 1	 0.0	 0.0	 0.0	 0.0	 1	    0.97500	    0.00000	 69.0	 1	    1.05000	    0.90000;
	131	 1	 0.0	 0.0	 0.0	 0.0	 1	    0.97500	    0.00000	 69.0	 1	    1.05000	    0.90000;
	132	 1	 6.04	 2.174	 0.0	 0.0	 1	    0.97500	    0.00000	 69.0	 1	    1.05000	    0.90000;
	133	 1	 5.09	 0.731	 0.0	 0.0	 1	    0.97500	    0.00000	 69.0	 1	    1.05000	    0.90000;
	134	 1	 8.531	 0.858	 0.0	 0.0	 1	    0.97500	    0.00000	 69.0	 1	    1.05000	    0.90000;
	135	 1	 4.563	 0.663	 0.0	 0.0	 1	    0.97500	    0.00000	 69.0	 1	    1.05000	    0.90000;
	136	 1	 11.135	 1.989	 0.0	 0.0	 1	    0.97500	    0.00000	 69.0	 1	    1.05000	    0.90000;
	137	 1	 4.504	 0.653	 0.0	 0.0	 1	    0.97500	    0.00000	 69.0	 1	    1.05000	    0.90000;
	138	 1	 7.244	 0.731	 0.0	 0.0	 1	    0.97500	    0.00000	 69.0	 1	    1.05000	    0.90000;
	139	 1	 8.853	 0.897	 0.0	 0.0	 1	    0.97500	    0.00000	 69.0	 1	    1.05000	    0.90000;
	140	 1	 4.456	 0.448	 0.0	 0.0	 1	    0.97500	    0.00000	 69.0	 1	    1.05000	    0.90000;
	141	 1	 7.595	 1.092	 0.0	 0.0	 1	    0.97500	    0.00000	 69.0	 1	    1.05000	    0.90000;
	142	 1	 4.144	 0.741	 0.0	 0.0	 1	    0.97500	    0.00000	 69.0	 1	    1.05000	    0.90000;
	143	 1	 7.761	 0.78	 0.0	 0.0	 1	    0.97500	    0.00000	 69.0	 1	    1.05000	    0.90000;
	144	 1	 7.215	 1.287	 0.0	 0.0	 1	    0.97500	    0.00000	 69.0	 1	    1.05000	    0.90000;
	145	 1	 5.684	 1.014	 0.0	 0.0	 1	    0.97500	    0.00000	 69.0	 1	    1.05000	    0.90000;
	146	 1	 3.559	 0.517	 0.0	 0.0	 1	    0.97500	    0.00000	 69.0	 1	    1.05000	    0.90000;
	147	 1	 13.299	 1.921	 0.0	 0.0	 1	    0.97500	    0.00000	 69.0	 1	    1.05000	    0.90000;
	148	 1	 3.139	 0.322	 0.0	 0.0	 1	    0.97500	    0.00000	 69.0	 1	    1.05000	    0.90000;
	149	 1	 3.18	 0.887	 0.0	 0.0	 1	    0.97500	    0.00000	 69.0	 1	    1.05000	    0.90000;
	150	 1	 3.286	 0.478	 0.0	 0.0	 1	    0.97500	    0.00000	 69.0	 1	    1.05000	    0.90000;
	151	 1	 4.173	 0.419	 0.0	 0.0	 1	    0.97500	    0.00000	 69.0	 1	    1.05000	    0.90000;
	152	 1	 7.03	 1.258	 0.0	 0.0	 1	    0.97500	    0.00000	 69.0	 1	    1.05000	    0.90000;
	153	 1	 6.045	 1.082	 0.0	 0.0	 1	    0.97500	    0.00000	 69.0	 1	    1.05000	    0.90000;
	154	 1	 6.25	 0.634	 0.0	 0.0	 1	    0.97500	    0.00000	 69.0	 1	    1.05000	    0.90000;
	155	 1	 7.059	 1.014	 0.0	 0.0	 1	    0.97500	    0.00000	 69.0	 1	    1.05000	    0.90000;
	156	 1	 3.452	 0.351	 0.0	 0.0	 1	    0.97500	    0.00000	 69.0	 1	    1.05000	    0.90000;
	157	 1	 8.151	 1.18	 0.0	 0.0	 1	    0.97500	    0.00000	 69.0	 1	    1.05000	    0.90000;
	158	 1	 6.367	 0.917	 0.0	 0.0	 1	    0.97500	    0.00000	 69.0	 1	    1.05000	    0.90000;
	159	 1	 15.229	 2.194	 0.0	 0.0	 1	    0.97500	    0.00000	 69.0	 1	    1.05000	    0.90000;
	160	 1	 34.544	 6.172	 0.0	 0.0	 1	    0.97500	    0.00000	 69.0	 1	    1.05000	    0.90000;
	161	 1	 8.414	 1.501	 0.0	 0.0	 1	    0.97500	    0.00000	 69.0	 1	    1.05000	    0.90000;
	162	 1	 22.942	 2.321	 0.0	 0.0	 1	    0.97500	    0.00000	 69.0	 1	    1.05000	    0.90000;
	163	 1	 12.607	 2.252	 0.0	 0.0	 1	    0.97500	    0.00000	 69.0	 1	    1.05000	    0.90000;
	164	 1	 5.333	 0.955	 0.0	 0.0	 1	    0.97500	    0.00000	 69.0	 1	    1.05000	    0.90000;
	165	 1	 8.736	 1.56	 0.0	 0.0	 1	    0.97500	    0.00000	 69.0	 1	    1.05000	    0.90000;
	166	 1	 4.865	 0.488	 0.0	 0.0	 1	    0.97500	    0.00000	 69.0	 1	    1.05000	    0.90000;
	167	 1	 3.92	 0.702	 0.0	 0.0	 1	    0.97500	    0.00000	 69.0	 1	    1.05000	    0.90000;
	168	 1	 13.709	 1.385	 0.0	 0.0	 1	    0.97500	    0.00000	 69.0	 1	    1.05000	    0.90000;
	169	 1	 12.11	 1.745	 0.0	 0.0	 1	    0.97500	    0.00000	 69.0	 1	    1.05000	    0.90000;
	170	 1	 24.638	 2.486	 0.0	 0.0	 1	    0.97500	    0.00000	 69.0	 1	    1.05000	    0.90000;
	171	 1	 2.038	 0.292	 0.0	 0.0	 1	    0.97500	    0.00000	 69.0	 1	    1.05000	    0.90000;
	172	 1	 5.324	 0.536	 0.0	 0.0	 1	    0.97500	    0.00000	 69.0	 1	    1.05000	    0.90000;
	173	 1	 6.474	 0.653	 0.0	 0.0	 1	    0.97500	    0.00000	 69.0	 1	    1.05000	    0.90000;
	174	 1	 3.627	 0.526	 0.0	 0.0	 1	    0.97500	    0.00000	 69.0	 1	    1.05000	    0.90000;
	175	 1	 5.762	 0.585	 0.0	 0.0	 1	    0.97500	    0.00000	 69.0	 1	    1.05000	    0.90000;
	176	 1	 5.304	 0.77	 0.0	 0.0	 1	    0.97500	    0.00000	 69.0	 1	    1.05000	    0.90000;
	177	 1	 18.71	 2.701	 0.0	 0.0	 1	    0.97500	    0.00000	 69.0	 1	    1.05000	    0.90000;
	178	 1	 2.827	 0.283	 0.0	 0.0	 1	    0.97500	    0.00000	 69.0	 1	    1.05000	    0.90000;
	179	 1	 8.034	 1.433	 0.0	 0.0	 1	    0.97500	    0.00000	 69.0	 1	    1.05000	    0.90000;
	180	 1	 4.329	 0.624	 0.0	 0.0	 1	    0.97500	    0.00000	 69.0	 1	    1.05000	    0.90000;
	181	 1	 3.871	 0.556	 0.0	 0.0	 1	    0.97500	    0.00000	 69.0	 1	    1.05000	    0.90000;
	182	 1	 9.126	 1.316	 0.0	 0.0	 1	    0.97500	    0.00000	 69.0	 1	    1.05000	    0.90000;
	183	 1	 9.662	 1.394	 0.0	 0.0	 1	    0.97500	    0.00000	 69.0	 1	    1.05000	    0.90000;
	184	 1	 4.856	 0.868	 0.0	 0.0	 1	    0.97500	    0.00000	 69.0	 1	    1.05000	    0.90000;
	185	 1	 1.404	 0.146	 0.0	 0.0	 1	    0.97500	    0.00000	 69.0	 1	    1.05000	    0.90000;
	186	 1	 4.504	 0.653	 0.0	 0.0	 1	    0.97500	    0.00000	 69.0	 1	    1.05000	    0.90000;
	187	 1	 8.892	 1.589	 0.0	 0.0	 1	    0.97500	    0.00000	 69.0	 1	    1.05000	    0.90000;
	188	 1	 3.559	 0.361	 0.0	 0.0	 1	    0.97500	    0.00000	 69.0	 1	    1.05000	    0.90000;
	189	 1	 2.72	 0.39	 0.0	 0.0	 1	    0.97500	    0.00000	 69.0	 1	    1.05000	    0.90000;
	190	 1	 7.595	 1.355	 0.0	 0.0	 1	    0.97500	    0.00000	 69.0	 1	    1.05000	    0.90000;
	191	 1	 4.085	 0.41	 0.0	 0.0	 1	    0.97500	    0.00000	 69.0	 1	    1.05000	    0.90000;
	192	 1	 2.623	 0.263	 0.0	 0.0	 1	    0.97500	    0.00000	 69.0	 1	    1.05000	    0.90000;
	193	 1	 8.492	 0.858	 0.0	 0.0	 1	    0.97500	    0.00000	 69.0	 1	    1.05000	    0.90000;
	194	 1	 12.363	 1.248	 0.0	 0.0	 1	    0.97500	    0.00000	 69.0	 1	    1.05000	    0.90000;
	195	 1	 4.651	 0.829	 0.0	 0.0	 1	    0.97500	    0.00000	 69.0	 1	    1.05000	    0.90000;
	196	 1	 5.324	 0.77	 0.0	 0.0	 1	    0.97500	    0.00000	 69.0	 1	    1.05000	    0.90000;
	197	 1	 4.992	 0.887	 0.0	 0.0	 1	    0.97500	    0.00000	 69.0	 1	    1.05000	    0.90000;
	198	 1	 7.381	 1.316	 0.0	 0.0	 1	    0.97500	    0.00000	 69.0	 1	    1.05000	    0.90000;
	199	 1	 3.89	 0.565	 0.0	 0.0	 1	    0.97500	    0.00000	 69.0	 1	    1.05000	    0.90000;
	200	 1	 9.643	 1.726	 0.0	 0.0	 1	    0.97500	    0.00000	 69.0	 1	    1.05000	    0.90000;
...
];

%% generator data
%	bus	Pg	Qg	Qmax	Qmin	Vg	mBase	status	Pmax	Pmin
mpc.gen = [
	2	 280.0	 34.75	 222.8	 -153.3	 0.975	 100.0	 1	 460.0	 100.0;
	11	 38.5	 9.6	 41.5	 -22.3	 0.975	 100.0	 1	 67.0	 10.0;
	19	 36.1	 5.35	 23.1	 -12.4	 0.975	 100.0	 1	 37.2	 35.0;
	20	 18.65	 0.0	 0.0	 0.0	 0.975	 100.0	 1	 31.3	 6.0;
	21	 4.215	 0.85	 4.25	 -2.55	 0.975	 100.0	 1	 7.63	 0.8;
	21	 4.215	 0.85	 4.25	 -2.55	 0.975	 100.0	 1	 7.63	 0.8;
	21	 4.215	 0.85	 4.25	 -2.55	 0.975	 100.0	 1	 7.63	 0.8;
	21	 4.215	 0.85	 4.25	 -2.55	 0.975	 100.0	 1	 7.63	 0.8;
	24	 17.75	 0.0	 5.2	 -5.2	 0.975	 100.0	 1	 25.7	 9.8;
	25	 23.5	 5.0	 18.0	 -8.0	 0.975	 100.0	 1	 24.0	 23.0;
	26	 19.1	 3.35	 14.4	 -7.7	 0.975	 100.0	 1	 23.2	 15.0;
	26	 19.1	 3.35	 14.4	 -7.7	 0.975	 100.0	 1	 23.2	 15.0;
	26	 19.1	 3.35	 14.4	 -7.7	 0.975	 100.0	 1	 23.2	 15.0;
	27	 19.6	 3.1	 13.5	 -7.3	 0.975	 100.0	 1	 21.8	 17.4;
	29	 19.6	 3.1	 13.5	 -7.3	 0.975	 100.0	 1	 21.8	 17.4;
	30	 13.8	 3.95	 14.6	 -6.7	 0.975	 100.0	 1	 20.2	 7.4;
	31	 19.8	 2.85	 12.4	 -6.7	 0.975	 100.0	 1	 20.0	 19.6;
	31	 19.55	 2.85	 12.4	 -6.7	 0.975	 100.0	 1	 20.0	 19.1;
	31	 22.05	 3.6	 15.5	 -8.3	 0.975	 100.0	 1	 25.0	 19.1;
	31	 22.05	 3.6	 15.5	 -8.3	 0.975	 100.0	 1	 25.0	 19.1;
	31	 21.85	 3.6	 15.5	 -8.3	 0.975	 100.0	 1	 25.0	 18.7;
	50	 37.0	 5.2	 33.4	 -23.0	 0.975	 100.0	 1	 69.0	 5.0;
	53	 51.45	 8.3	 35.9	 -19.3	 0.975	 100.0	 1	 57.9	 45.0;
	53	 18.55	 3.9	 16.8	 -9.0	 0.975	 100.0	 1	 27.1	 10.0;
	55	 25.05	 3.5	 22.3	 -15.3	 0.975	 100.0	 1	 46.0	 4.1;
	57	 9.6	 2.035	 8.8	 -4.73	 0.975	 100.0	 1	 14.2	 5.0;
	57	 9.6	 2.035	 8.8	 -4.73	 0.975	 100.0	 1	 14.2	 5.0;
	57	 9.6	 2.035	 8.8	 -4.73	 0.975	 100.0	 1	 14.2	 5.0;
	62	 6.665	 2.3	 8.27	 -3.67	 0.975	 100.0	 1	 11.0	 2.33;
	62	 6.665	 2.3	 8.27	 -3.67	 0.975	 100.0	 1	 11.0	 2.33;
	62	 6.665	 2.3	 8.27	 -3.67	 0.975	 100.0	 1	 11.0	 2.33;
	63	 5.915	 2.265	 8.13	 -3.6	 0.975	 100.0	 1	 10.83	 1.0;
	63	 5.915	 2.265	 8.13	 -3.6	 0.975	 100.0	 1	 10.83	 1.0;
	63	 5.915	 2.265	 8.13	 -3.6	 0.975	 100.0	 1	 10.83	 1.0;
	65	 4.4	 0.975	 4.22	 -2.27	 0.975	 100.0	 1	 6.8	 2.0;
	65	 6.0	 1.575	 6.8	 -3.65	 0.975	 100.0	 1	 11.0	 1.0;
	65	 4.4	 0.975	 4.22	 -2.27	 0.975	 100.0	 1	 6.8	 2.0;
	65	 4.4	 0.975	 4.22	 -2.27	 0.975	 100.0	 1	 6.8	 2.0;
	65	 4.4	 0.975	 4.22	 -2.27	 0.975	 100.0	 1	 6.8	 2.0;
	65	 4.4	 0.975	 4.22	 -2.27	 0.975	 100.0	 1	 6.8	 2.0;
	65	 4.4	 0.975	 4.22	 -2.27	 0.975	 100.0	 1	 6.8	 2.0;
	65	 9.25	 1.8	 7.75	 -4.15	 0.975	 100.0	 1	 12.5	 6.0;
	65	 9.25	 1.8	 7.75	 -4.15	 0.975	 100.0	 1	 12.5	 6.0;
	65	 6.0	 1.575	 6.8	 -3.65	 0.975	 100.0	 1	 11.0	 1.0;
	66	 21.85	 5.15	 18.5	 -8.2	 0.975	 100.0	 1	 24.7	 19.0;
	68	 3.865	 0.0	 0.0	 0.0	 0.975	 100.0	 1	 7.63	 0.1;
	68	 3.865	 0.0	 0.0	 0.0	 0.975	 100.0	 1	 7.63	 0.1;
	68	 3.865	 0.0	 0.0	 0.0	 0.975	 100.0	 1	 7.63	 0.1;
	70	 17.6	 1.6	 10.3	 -7.1	 0.975	 100.0	 1	 21.2	 14.0;
	71	 18.05	 3.05	 13.1	 -7.0	 0.975	 100.0	 1	 21.1	 15.0;
	73	 6.425	 1.2	 5.75	 -3.35	 0.975	 100.0	 1	 10.0	 2.85;
	73	 6.425	 1.2	 5.75	 -3.35	 0.975	 100.0	 1	 10.0	 2.85;
	76	 132.2	 25.7	 111.2	 -59.8	 0.975	 100.0	 1	 179.4	 85.0;
	76	 70.05	 13.6	 58.9	 -31.7	 0.975	 100.0	 1	 95.1	 45.0;
	79	 53.8	 9.2	 52.6	 -34.2	 0.975	 100.0	 1	 102.6	 5.0;
	87	 5.795	 0.565	 3.6	 -2.47	 0.975	 100.0	 1	 7.42	 4.17;
	87	 5.795	 0.565	 3.6	 -2.47	 0.975	 100.0	 1	 7.42	 4.17;
	87	 5.795	 0.565	 3.6	 -2.47	 0.975	 100.0	 1	 7.42	 4.17;
	87	 5.795	 0.565	 3.6	 -2.47	 0.975	 100.0	 1	 7.42	 4.17;
	87	 5.795	 0.565	 3.6	 -2.47	 0.975	 100.0	 1	 7.42	 4.17;
	87	 5.795	 0.565	 3.6	 -2.47	 0.975	 100.0	 1	 7.42	 4.17;
	88	 21.0	 0.0	 16.6	 -16.6	 0.975	 100.0	 1	 42.0	 0.0;
	91	 26.25	 7.8	 28.1	 -12.5	 0.975	 100.0	 1	 37.5	 15.0;
	92	 9.75	 2.5	 10.85	 -5.85	 0.975	 100.0	 1	 17.5	 2.0;
	92	 9.75	 2.5	 10.85	 -5.85	 0.975	 100.0	 1	 17.5	 2.0;
	95	 8.125	 2.05	 8.85	 -4.75	 0.975	 100.0	 1	 14.25	 2.0;
	95	 8.125	 2.05	 8.85	 -4.75	 0.975	 100.0	 1	 14.25	 2.0;
	97	 16.75	 3.9	 17.0	 -9.2	 0.975	 100.0	 1	 27.5	 6.0;
	101	 15.15	 3.65	 15.7	 -8.4	 0.975	 100.0	 1	 25.3	 5.0;
	102	 17.0	 1.9	 12.1	 -8.3	 0.975	 100.0	 1	 25.0	 9.0;
	102	 17.0	 1.9	 12.1	 -8.3	 0.975	 100.0	 1	 25.0	 9.0;
	102	 19.0	 2.25	 14.5	 -10.0	 0.975	 100.0	 1	 30.0	 8.0;
	104	 14.0	 3.15	 13.6	 -7.3	 0.975	 100.0	 1	 22.0	 6.0;
	112	 20.0	 5.25	 18.8	 -8.3	 0.975	 100.0	 1	 25.0	 15.0;
	113	 12.0	 0.0	 9.5	 -9.5	 0.975	 100.0	 1	 24.0	 0.0;
	114	 11.0	 1.5	 9.7	 -6.7	 0.975	 100.0	 1	 20.0	 2.0;
	123	 37.25	 4.5	 28.8	 -19.8	 0.975	 100.0	 1	 59.5	 15.0;
	126	 7.4	 0.0	 5.6	 -5.6	 0.975	 100.0	 1	 11.87	 2.93;
	126	 7.4	 0.0	 5.6	 -5.6	 0.975	 100.0	 1	 11.87	 2.93;
	126	 7.4	 0.0	 5.6	 -5.6	 0.975	 100.0	 1	 11.87	 2.93;
	128	 9.6	 2.335	 8.4	 -3.73	 0.975	 100.0	 1	 11.2	 8.0;
	128	 9.6	 2.335	 8.4	 -3.73	 0.975	 100.0	 1	 11.2	 8.0;
	128	 9.6	 2.335	 8.4	 -3.73	 0.975	 100.0	 1	 11.2	 8.0;
	129	 15.25	 3.65	 15.8	 -8.5	 0.975	 100.0	 1	 25.5	 5.0;
	75435	 532.5	 0.0	 514.7	 -514.7	 0.975	 100.0	 1	 1000.0	 65.0;
	75435	 425.0	 68.7	 440.7	 -303.3	 0.975	 100.0	 1	 800.0	 50.0;
	75436	 265.0	 57.3	 247.9	 -133.3	 0.975	 100.0	 1	 400.0	 130.0;
	75436	 110.84	 23.35	 101.0	 -54.3	 0.975	 100.0	 1	 163.0	 58.68;
	75437	 224.5	 41.4	 179.1	 -96.3	 0.975	 100.0	 1	 289.0	 160.0;
	75437	 224.5	 41.4	 179.1	 -96.3	 0.975	 100.0	 1	 289.0	 160.0;
	75439	 212.5	 40.1	 173.5	 -93.3	 0.975	 100.0	 1	 280.0	 145.0;
	75439	 212.5	 40.1	 173.5	 -93.3	 0.975	 100.0	 1	 280.0	 145.0;
	75439	 212.5	 40.1	 173.5	 -93.3	 0.975	 100.0	 1	 280.0	 145.0;
	75441	 137.7	 25.8	 111.6	 -60.0	 0.975	 100.0	 1	 180.0	 95.4;
	75441	 130.05	 24.35	 105.4	 -56.7	 0.975	 100.0	 1	 170.0	 90.1;
	75441	 130.05	 24.35	 105.4	 -56.7	 0.975	 100.0	 1	 170.0	 90.1;
	75443	 169.7	 34.3	 148.4	 -79.8	 0.975	 100.0	 1	 239.4	 100.0;
	75443	 79.3	 16.25	 70.4	 -37.9	 0.975	 100.0	 1	 113.6	 45.0;
	75443	 269.95	 31.3	 200.9	 -138.3	 0.975	 100.0	 1	 414.9	 125.0;
	75444	 73.0	 20.0	 72.0	 -32.0	 0.975	 100.0	 1	 96.0	 50.0;
	75445	 62.0	 0.0	 27.6	 -27.6	 0.975	 100.0	 1	 84.0	 40.0;
	75448	 269.95	 31.3	 200.9	 -138.3	 0.975	 100.0	 1	 414.9	 125.0;
	75448	 57.5	 15.65	 56.3	 -25.0	 0.975	 100.0	 1	 75.0	 40.0;
	75450	 39.75	 8.65	 37.5	 -20.2	 0.975	 100.0	 1	 60.5	 19.0;
	75450	 39.75	 8.65	 37.5	 -20.2	 0.975	 100.0	 1	 60.5	 19.0;
	75450	 39.75	 8.65	 37.5	 -20.2	 0.975	 100.0	 1	 60.5	 19.0;
	75450	 39.75	 8.65	 37.5	 -20.2	 0.975	 100.0	 1	 60.5	 19.0;
	75452	 27.5	 5.75	 24.8	 -13.3	 0.975	 100.0	 1	 40.0	 15.0;
	75452	 36.0	 8.0	 34.7	 -18.7	 0.975	 100.0	 1	 56.0	 16.0;
	75453	 33.5	 7.3	 31.6	 -17.0	 0.975	 100.0	 1	 51.0	 16.0;
	75453	 33.5	 7.3	 31.6	 -17.0	 0.975	 100.0	 1	 51.0	 16.0;
	75453	 33.5	 7.3	 31.6	 -17.0	 0.975	 100.0	 1	 51.0	 16.0;
	75453	 33.5	 7.3	 31.6	 -17.0	 0.975	 100.0	 1	 51.0	 16.0;
	75454	 26.0	 7.15	 31.0	 -16.7	 0.975	 100.0	 1	 50.0	 2.0;
	75454	 26.0	 7.15	 31.0	 -16.7	 0.975	 100.0	 1	 50.0	 2.0;
	75454	 26.0	 7.15	 31.0	 -16.7	 0.975	 100.0	 1	 50.0	 2.0;
	75454	 26.0	 7.15	 31.0	 -16.7	 0.975	 100.0	 1	 50.0	 2.0;
	75454	 26.0	 7.15	 31.0	 -16.7	 0.975	 100.0	 1	 50.0	 2.0;
	75455	 33.5	 3.4	 21.8	 -15.0	 0.975	 100.0	 1	 45.0	 22.0;
	75455	 33.5	 9.4	 33.8	 -15.0	 0.975	 100.0	 1	 45.0	 22.0;
	75456	 34.55	 3.35	 21.4	 -14.7	 0.975	 100.0	 1	 44.1	 25.0;
	75456	 19.55	 2.55	 16.5	 -11.4	 0.975	 100.0	 1	 34.1	 5.0;
	75457	 25.9	 3.15	 20.2	 -13.9	 0.975	 100.0	 1	 41.8	 10.0;
	75457	 25.9	 3.15	 20.2	 -13.9	 0.975	 100.0	 1	 41.8	 10.0;
	75457	 25.9	 3.15	 20.2	 -13.9	 0.975	 100.0	 1	 41.8	 10.0;
	75457	 25.9	 8.75	 31.4	 -13.9	 0.975	 100.0	 1	 41.8	 10.0;
	75458	 4.05	 0.0	 3.55	 -3.55	 0.975	 100.0	 1	 7.5	 0.6;
	75458	 4.05	 0.0	 3.55	 -3.55	 0.975	 100.0	 1	 7.5	 0.6;
	75458	 4.05	 0.0	 3.55	 -3.55	 0.975	 100.0	 1	 7.5	 0.6;
	75458	 4.05	 0.0	 3.55	 -3.55	 0.975	 100.0	 1	 7.5	 0.6;
	75459	 18.9	 3.7	 16.0	 -8.6	 0.975	 100.0	 1	 25.8	 12.0;
	75460	 18.95	 3.1	 13.5	 -7.3	 0.975	 100.0	 1	 21.8	 16.1;
	75462	 375.0	 0.0	 190.6	 -190.6	 0.975	 100.0	 1	 580.0	 170.0;
	75462	 392.5	 0.0	 240.3	 -240.3	 0.975	 100.0	 1	 585.0	 200.0;
	75464	 70.0	 6.45	 41.2	 -28.3	 0.975	 100.0	 1	 85.0	 55.0;
	75464	 64.185	 6.725	 43.15	 -29.7	 0.975	 100.0	 1	 89.1	 39.27;
	75464	 64.185	 6.725	 43.15	 -29.7	 0.975	 100.0	 1	 89.1	 39.27;
	75464	 64.185	 6.725	 43.15	 -29.7	 0.975	 100.0	 1	 89.1	 39.27;
	75464	 62.5	 6.45	 41.2	 -28.3	 0.975	 100.0	 1	 85.0	 40.0;
	75464	 62.5	 6.45	 41.2	 -28.3	 0.975	 100.0	 1	 85.0	 40.0;
	75464	 62.5	 6.45	 41.2	 -28.3	 0.975	 100.0	 1	 85.0	 40.0;
	75464	 62.5	 6.45	 41.2	 -28.3	 0.975	 100.0	 1	 85.0	 40.0;
	75464	 62.5	 7.95	 50.9	 -35.0	 0.975	 100.0	 1	 105.0	 20.0;
	75464	 64.185	 6.725	 43.15	 -29.7	 0.975	 100.0	 1	 89.1	 39.27;
	75464	 64.185	 6.725	 43.15	 -29.7	 0.975	 100.0	 1	 89.1	 39.27;
	75464	 64.185	 6.725	 43.15	 -29.7	 0.975	 100.0	 1	 89.1	 39.27;
	75466	 172.5	 22.65	 145.3	 -100.0	 0.975	 100.0	 1	 300.0	 45.0;
	75466	 172.5	 22.65	 145.3	 -100.0	 0.975	 100.0	 1	 300.0	 45.0;
	75468	 222.0	 60.25	 216.8	 -96.3	 0.975	 100.0	 1	 289.0	 155.0;
	75469	 219.5	 41.4	 179.1	 -96.3	 0.975	 100.0	 1	 289.0	 150.0;
	75469	 219.5	 41.4	 179.1	 -96.3	 0.975	 100.0	 1	 289.0	 150.0;
	75471	 219.5	 41.4	 179.1	 -96.3	 0.975	 100.0	 1	 289.0	 150.0;
	75471	 219.5	 41.4	 179.1	 -96.3	 0.975	 100.0	 1	 289.0	 150.0;
	75474	 353.5	 46.55	 298.8	 -205.7	 0.975	 100.0	 1	 617.0	 90.0;
	75474	 209.3	 39.9	 172.7	 -92.9	 0.975	 100.0	 1	 278.6	 140.0;
	75474	 209.3	 39.9	 172.7	 -92.9	 0.975	 100.0	 1	 278.6	 140.0;
	75474	 209.3	 39.9	 172.7	 -92.9	 0.975	 100.0	 1	 278.6	 140.0;
	75474	 209.3	 39.9	 172.7	 -92.9	 0.975	 100.0	 1	 278.6	 140.0;
	75474	 195.0	 45.1	 195.2	 -105.0	 0.975	 100.0	 1	 315.0	 75.0;
	75474	 195.0	 45.1	 195.2	 -105.0	 0.975	 100.0	 1	 315.0	 75.0;
	75476	 209.3	 39.9	 172.7	 -92.9	 0.975	 100.0	 1	 278.6	 140.0;
	75476	 209.3	 39.9	 172.7	 -92.9	 0.975	 100.0	 1	 278.6	 140.0;
	75476	 195.0	 45.1	 195.2	 -105.0	 0.975	 100.0	 1	 315.0	 75.0;
	75478	 17.0	 2.85	 12.4	 -6.7	 0.975	 100.0	 1	 20.0	 14.0;
	75478	 20.6	 3.9	 16.9	 -9.1	 0.975	 100.0	 1	 27.2	 14.0;
	75478	 14.0	 4.8	 17.3	 -7.7	 0.975	 100.0	 1	 23.0	 5.0;
	75478	 61.265	 12.98	 54.13	 -28.17	 0.975	 100.0	 1	 84.53	 38.0;
	75478	 61.265	 12.98	 54.13	 -28.17	 0.975	 100.0	 1	 84.53	 38.0;
	75478	 61.265	 12.98	 54.13	 -28.17	 0.975	 100.0	 1	 84.53	 38.0;
	75478	 138.1	 26.65	 115.4	 -62.1	 0.975	 100.0	 1	 186.2	 90.0;
	75480	 262.75	 35.9	 230.3	 -158.5	 0.975	 100.0	 1	 475.5	 50.0;
	75480	 170.5	 18.2	 116.7	 -80.3	 0.975	 100.0	 1	 241.0	 100.0;
	75480	 170.5	 18.2	 116.7	 -80.3	 0.975	 100.0	 1	 241.0	 100.0;
	75480	 496.3	 0.0	 211.2	 -211.2	 0.975	 100.0	 1	 642.6	 350.0;
	75482	 157.5	 0.0	 77.2	 -77.2	 0.975	 100.0	 1	 235.0	 80.0;
	75482	 157.5	 0.0	 77.2	 -77.2	 0.975	 100.0	 1	 235.0	 80.0;
	75482	 157.5	 0.0	 77.2	 -77.2	 0.975	 100.0	 1	 235.0	 80.0;
	75482	 157.5	 0.0	 77.2	 -77.2	 0.975	 100.0	 1	 235.0	 80.0;
	75483	 172.5	 0.0	 75.6	 -75.6	 0.975	 100.0	 1	 230.0	 115.0;
	75483	 97.5	 0.0	 42.7	 -42.7	 0.975	 100.0	 1	 130.0	 65.0;
	75484	 154.0	 28.6	 123.9	 -66.7	 0.975	 100.0	 1	 200.0	 108.0;
	75485	 98.0	 19.5	 84.3	 -45.3	 0.975	 100.0	 1	 136.0	 60.0;
	75488	 40.55	 7.0	 30.4	 -16.4	 0.975	 100.0	 1	 49.1	 32.0;
	75488	 108.45	 18.45	 79.9	 -43.0	 0.975	 100.0	 1	 128.9	 88.0;
	75490	 106.85	 0.0	 32.3	 -32.3	 0.975	 100.0	 1	 128.7	 85.0;
	75490	 106.85	 0.0	 32.3	 -32.3	 0.975	 100.0	 1	 128.7	 85.0;
	75490	 79.35	 0.0	 32.3	 -32.3	 0.975	 100.0	 1	 128.7	 30.0;
	75492	 70.45	 11.55	 50.1	 -27.0	 0.975	 100.0	 1	 80.9	 60.0;
	75492	 77.0	 12.9	 55.8	 -30.0	 0.975	 100.0	 1	 90.0	 64.0;
	75492	 77.0	 12.9	 55.8	 -30.0	 0.975	 100.0	 1	 90.0	 64.0;
	75493	 43.0	 8.3	 35.9	 -19.3	 0.975	 100.0	 1	 58.0	 28.0;
	75493	 43.0	 8.3	 35.9	 -19.3	 0.975	 100.0	 1	 58.0	 28.0;
	75493	 16.5	 1.9	 12.1	 -8.3	 0.975	 100.0	 1	 25.0	 8.0;
	75493	 56.5	 5.75	 36.8	 -25.3	 0.975	 100.0	 1	 76.0	 37.0;
	75494	 9.15	 2.15	 7.73	 -3.43	 0.975	 100.0	 1	 10.3	 8.0;
	75494	 9.15	 2.15	 7.73	 -3.43	 0.975	 100.0	 1	 10.3	 8.0;
	75494	 9.15	 2.15	 7.73	 -3.43	 0.975	 100.0	 1	 10.3	 8.0;
	75494	 9.15	 2.15	 7.73	 -3.43	 0.975	 100.0	 1	 10.3	 8.0;
	75494	 9.15	 2.15	 7.73	 -3.43	 0.975	 100.0	 1	 10.3	 8.0;
	75494	 9.15	 2.15	 7.73	 -3.43	 0.975	 100.0	 1	 10.3	 8.0;
...
];

%% generator cost data
%	2	startup	shutdown	n	c(n-1)	...	c0
mpc.gencost = [
	2	 0.0	 0.0	 3	   0.010750	  66.800000	  -2.036000;
	2	 0.0	 0.0	 3	   0.054020	  38.320000	  -1.310000;
2	0.0	0.0	3	0.2	0.004167	0.000000;
2	0.0	0.0	3	0.2	15.110000	-12.320000;
2	0.0	0.0	3	0.2	17.160000	0.000000;
2	0.0	0.0	3	0.2	13.530000	-1.208000;
2	0.0	0.0	3	0.2	16.970000	0.000000;
2	0.0	0.0	3	0.2	17.220000	0.000000;
2	0.0	0.0	3	0.2	14.980000	-19.340000;
2	0.0	0.0	3	0.2	0.008333	0.000000;
2	0.0	0.0	3	0.2	41.630000	-4.691000;
2	0.0	0.0	3	0.2	56.740000	-3.423000;
2	0.0	0.0	3	0.2	50.650000	-3.841000;
2	0.0	0.0	3	0.2	0.002174	0.000000;
2	0.0	0.0	3	0.2	0.002174	0.000000;
2	0.0	0.0	3	0.2	13.800000	-12.470000;
2	0.0	0.0	3	0.2	0.016670	0.000000;
2	0.0	0.0	3	0.2	0.009091	0.000000;
2	0.0	0.0	3	0.2	48.450000	-5.295000;
2	0.0	0.0	3	0.2	51.680000	-4.958000;
2	0.0	0.0	3	0.2	53.690000	-4.691000;
2	0.0	0.0	3	0.2	45.880000	-14.790000;
2	0.0	0.0	3	0.2	18.720000	-163.100000;
2	0.0	0.0	3	0.2	16.840000	-18.150000;
2	0.0	0.0	3	0.2	38.790000	-35.920000;
2	0.0	0.0	3	0.2	56.840000	-1.015000;
2	0.0	0.0	3	0.2	66.270000	0.000000;
2	0.0	0.0	3	0.2	69.570000	0.000000;
2	0.0	0.0	3	0.2	16.300000	-2.633000;
2	0.0	0.0	3	0.2	17.450000	-2.442000;
2	0.0	0.0	3	0.2	13.610000	-3.236000;
2	0.0	0.0	3	0.2	25.980000	-1.343000;
2	0.0	0.0	3	0.2	23.130000	-1.516000;
2	0.0	0.0	3	0.2	28.720000	-1.210000;
2	0.0	0.0	3	0.2	0.002000	0.000000;
2	0.0	0.0	3	0.2	27.990000	-1.278000;
2	0.0	0.0	3	0.2	0.002000	0.000000;
2	0.0	0.0	3	0.2	0.002000	0.000000;
2	0.0	0.0	3	0.2	0.002000	0.000000;
2	0.0	0.0	3	0.2	0.002000	0.000000;
2	0.0	0.0	3	0.2	0.002000	0.000000;
2	0.0	0.0	3	0.2	14.440000	-2.647000;
2	0.0	0.0	3	0.2	14.090000	-2.717000;
2	0.0	0.0	3	0.2	26.310000	-1.363000;
2	0.0	0.0	3	0.2	14.280000	-15.550000;
2	0.0	0.0	3	0.2	14.980000	0.000000;
2	0.0	0.0	3	0.2	16.330000	0.000000;
2	0.0	0.0	3	0.2	16.570000	0.000000;
2	0.0	0.0	3	0.2	12.230000	-12.090000;
2	0.0	0.0	3	0.2	53.310000	-3.234000;
2	0.0	0.0	3	0.2	23.670000	-1.875000;
2	0.0	0.0	3	0.2	22.300000	-1.996000;
	2	 0.0	 0.0	 3	   0.031530	   9.089000	  -4.493000;
2	0.0	0.0	3	0.2	22.740000	-45.350000;
	2	 0.0	 0.0	 3	   0.041520	  41.170000	  -1.216000;
2	0.0	0.0	3	0.2	0.002899	0.000000;
2	0.0	0.0	3	0.2	0.002899	0.000000;
2	0.0	0.0	3	0.2	0.002899	0.000000;
2	0.0	0.0	3	0.2	0.002899	0.000000;
2	0.0	0.0	3	0.2	0.002899	0.000000;
2	0.0	0.0	3	0.2	0.002899	0.000000;
2	0.0	0.0	3	0.2	0.000237	0.000000;
2	0.0	0.0	3	0.2	42.300000	-31.330000;
2	0.0	0.0	3	0.2	66.030000	0.000000;
2	0.0	0.0	3	0.2	67.750000	0.000000;
2	0.0	0.0	3	0.2	41.130000	-2.809000;
2	0.0	0.0	3	0.2	39.580000	-2.923000;
2	0.0	0.0	3	0.2	34.040000	-15.460000;
2	0.0	0.0	3	0.2	37.760000	-13.690000;
2	0.0	0.0	3	0.2	38.980000	-14.020000;
2	0.0	0.0	3	0.2	32.190000	-17.360000;
2	0.0	0.0	3	0.2	34.200000	-20.170000;
2	0.0	0.0	3	0.2	15.940000	-6.474000;
2	0.0	0.0	3	0.2	35.290000	-21.790000;
2	0.0	0.0	3	0.2	0.000413	0.000000;
2	0.0	0.0	3	0.2	33.930000	-6.233000;
2	0.0	0.0	3	0.2	35.110000	-80.940000;
2	0.0	0.0	3	0.2	13.530000	-4.095000;
2	0.0	0.0	3	0.2	17.730000	-2.999000;
2	0.0	0.0	3	0.2	16.210000	-3.315000;
2	0.0	0.0	3	0.2	0.002941	0.000000;
2	0.0	0.0	3	0.2	0.002941	0.000000;
2	0.0	0.0	3	0.2	0.002941	0.000000;
2	0.0	0.0	3	0.2	52.980000	-2.280000;
	2	 0.0	 0.0	 3	   0.000900	   3.165000	   0.000000;
	2	 0.0	 0.0	 3	   0.001143	   2.528000	   0.000000;
	2	 0.0	 0.0	 3	   0.000000	   0.000000	   0.000000;
	2	 0.0	 0.0	 3	   0.052010	  90.400000	  -4.980000;
	2	 0.0	 0.0	 3	   0.031510	  10.880000	  -9.072000;
	2	 0.0	 0.0	 3	   0.026770	  12.780000	  -7.706000;
	2	 0.0	 0.0	 3	   0.032340	  10.600000	  -8.094000;
	2	 0.0	 0.0	 3	   0.030690	  11.160000	  -7.681000;
	2	 0.0	 0.0	 3	   0.028080	  12.190000	  -7.028000;
	2	 0.0	 0.0	 3	   0.033710	   8.511000	  -5.684000;
	2	 0.0	 0.0	 3	   0.036440	   7.882000	  -5.812000;
	2	 0.0	 0.0	 3	   0.032270	   8.881000	  -5.147000;
	2	 0.0	 0.0	 3	   0.011900	  19.180000	  -1.930000;
2	0.0	0.0	3	0.2	21.580000	-77.490000;
	2	 0.0	 0.0	 3	   0.010160	  70.660000	  -2.116000;
2	0.0	0.0	3	0.2	19.640000	-52.190000;
2	0.0	0.0	3	0.2	17.850000	-41.610000;
	2	 0.0	 0.0	 3	   0.009623	  74.560000	  -2.005000;
2	0.0	0.0	3	0.2	83.600000	-216.300000;
2	0.0	0.0	3	0.2	55.150000	-15.400000;
2	0.0	0.0	3	0.2	45.930000	-18.620000;
2	0.0	0.0	3	0.2	50.470000	-16.880000;
2	0.0	0.0	3	0.2	50.290000	-16.940000;
2	0.0	0.0	3	0.2	15.740000	-48.810000;
2	0.0	0.0	3	0.2	17.150000	-80.440000;
2	0.0	0.0	3	0.2	48.740000	-12.390000;
2	0.0	0.0	3	0.2	47.320000	-12.780000;
2	0.0	0.0	3	0.2	53.130000	-11.340000;
2	0.0	0.0	3	0.2	52.240000	-11.540000;
2	0.0	0.0	3	0.2	16.830000	-16.850000;
2	0.0	0.0	3	0.2	16.640000	-17.090000;
2	0.0	0.0	3	0.2	15.820000	-18.210000;
2	0.0	0.0	3	0.2	15.280000	-19.050000;
2	0.0	0.0	3	0.2	14.350000	-20.700000;
2	0.0	0.0	3	0.2	37.010000	-76.260000;
2	0.0	0.0	3	0.2	33.220000	-88.620000;
2	0.0	0.0	3	0.2	20.660000	-53.040000;
2	0.0	0.0	3	0.2	17.610000	-18.340000;
2	0.0	0.0	3	0.2	48.400000	-7.335000;
2	0.0	0.0	3	0.2	58.280000	-6.068000;
2	0.0	0.0	3	0.2	46.980000	-7.562000;
2	0.0	0.0	3	0.2	47.820000	-7.427000;
2	0.0	0.0	3	0.2	27.220000	0.000000;
2	0.0	0.0	3	0.2	20.760000	0.000000;
2	0.0	0.0	3	0.2	22.850000	0.000000;
2	0.0	0.0	3	0.2	21.010000	0.000000;
2	0.0	0.0	3	0.2	14.800000	-11.260000;
2	0.0	0.0	3	0.2	57.120000	-3.315000;
	2	 0.0	 0.0	 3	   0.008596	  83.520000	  -2.449000;
	2	 0.0	 0.0	 3	   0.010190	  70.460000	  -3.296000;
2	0.0	0.0	3	0.2	15.240000	-49.530000;
2	0.0	0.0	3	0.2	29.720000	-86.940000;
2	0.0	0.0	3	0.2	28.000000	-93.640000;
2	0.0	0.0	3	0.2	33.380000	-75.700000;
2	0.0	0.0	3	0.2	13.170000	-47.370000;
2	0.0	0.0	3	0.2	13.490000	-45.900000;
2	0.0	0.0	3	0.2	16.920000	-34.920000;
2	0.0	0.0	3	0.2	16.770000	-35.290000;
2	0.0	0.0	3	0.2	12.630000	-48.640000;
2	0.0	0.0	3	0.2	34.470000	-72.930000;
2	0.0	0.0	3	0.2	32.650000	-77.670000;
2	0.0	0.0	3	0.2	33.170000	-76.260000;
	2	 0.0	 0.0	 3	   0.378400	  17.650000	 -40.230000;
	2	 0.0	 0.0	 3	   0.502100	  13.530000	 -53.380000;
	2	 0.0	 0.0	 3	   0.025910	  13.200000	  -7.071000;
	2	 0.0	 0.0	 3	   0.027200	  12.580000	  -7.048000;
	2	 0.0	 0.0	 3	   0.030130	  11.360000	  -7.808000;
	2	 0.0	 0.0	 3	   0.027000	  12.670000	  -6.994000;
	2	 0.0	 0.0	 3	   0.026360	  12.980000	  -6.829000;
	2	 0.0	 0.0	 3	   0.010970	  65.470000	  -2.367000;
	2	 0.0	 0.0	 3	   0.027760	  12.320000	  -6.610000;
	2	 0.0	 0.0	 3	   0.036420	   9.424000	  -8.672000;
	2	 0.0	 0.0	 3	   0.030980	  11.060000	  -7.376000;
	2	 0.0	 0.0	 3	   0.032990	  10.390000	  -7.856000;
	2	 0.0	 0.0	 3	   0.027160	  12.590000	  -3.709000;
	2	 0.0	 0.0	 3	   0.025430	  13.440000	  -3.473000;
	2	 0.0	 0.0	 3	   0.036980	   9.284000	  -8.805000;
	2	 0.0	 0.0	 3	   0.036770	   9.336000	  -8.756000;
	2	 0.0	 0.0	 3	   0.025580	  13.370000	  -3.492000;
2	0.0	0.0	3	0.2	60.490000	-2.527000;
2	0.0	0.0	3	0.2	15.820000	-24.820000;
2	0.0	0.0	3	0.2	17.290000	-9.457000;
2	0.0	0.0	3	0.2	15.540000	-115.000000;
2	0.0	0.0	3	0.2	14.410000	-136.000000;
2	0.0	0.0	3	0.2	16.400000	-104.400000;
2	0.0	0.0	3	0.2	20.760000	-213.800000;
	2	 0.0	 0.0	 3	   0.008594	  83.540000	  -1.306000;
	2	 0.0	 0.0	 3	   0.000000	   0.000000	   0.000000;
	2	 0.0	 0.0	 3	   0.000000	   0.000000	   0.000000;
	2	 0.0	 0.0	 3	   0.022550	  12.430000	 -13.890000;
	2	 0.0	 0.0	 3	   0.489300	  14.040000	 -63.930000;
	2	 0.0	 0.0	 3	   0.520600	  13.290000	 -68.020000;
	2	 0.0	 0.0	 3	   0.461900	  14.790000	 -60.350000;
	2	 0.0	 0.0	 3	   0.395800	  17.050000	 -51.710000;
2	0.0	0.0	3	0.2	20.970000	-347.600000;
2	0.0	0.0	3	0.2	19.940000	-106.000000;
2	0.0	0.0	3	0.2	21.780000	-253.400000;
2	0.0	0.0	3	0.2	15.140000	-113.500000;
2	0.0	0.0	3	0.2	19.340000	-83.800000;
2	0.0	0.0	3	0.2	18.550000	-144.500000;
2	0.0	0.0	3	0.2	23.990000	-101.200000;
2	0.0	0.0	3	0.2	22.340000	-110.200000;
2	0.0	0.0	3	0.2	22.760000	-57.440000;
2	0.0	0.0	3	0.2	23.020000	-44.300000;
2	0.0	0.0	3	0.2	23.450000	-52.320000;
2	0.0	0.0	3	0.2	17.730000	-72.910000;
2	0.0	0.0	3	0.2	18.000000	-50.690000;
2	0.0	0.0	3	0.2	15.940000	-60.320000;
2	0.0	0.0	3	0.2	17.830000	-13.110000;
2	0.0	0.0	3	0.2	20.890000	-32.020000;
2	0.0	0.0	3	0.2	0.004000	0.000000;
2	0.0	0.0	3	0.2	0.004000	0.000000;
2	0.0	0.0	3	0.2	0.004000	0.000000;
2	0.0	0.0	3	0.2	0.004000	0.000000;
2	0.0	0.0	3	0.2	0.004000	0.000000;
2	0.0	0.0	3	0.2	0.004000	0.000000;
...
];

%% storage data
%	bus	energy	energy_rating	charge_rating	discharge_rating	thermal_rating	qmin	qmax	r	x	standby_loss	status
mpc.storage = [
	967	0.0	0.0	1.00	115.3035	57.6517	41.5093	0.9	0.85	1000	-1000	1000	0.1	0.01	0	0	1;
	1039	0.0	0.0	1.00	106.2945	53.1472	38.2660	0.9	0.85	1000	-1000	1000	0.1	0.01	0	0	1;
	1040	0.0	0.0	1.00	102.7410	51.3705	36.9868	0.9	0.85	1000	-1000	1000	0.1	0.01	0	0	1;
	2006	0.0	0.0	1.00	93.4545	46.7272	33.6436	0.9	0.85	1000	-1000	1000	0.1	0.01	0	0	1;
	1177	0.0	0.0	1.00	91.6995	45.8498	33.0118	0.9	0.85	1000	-1000	1000	0.1	0.01	0	0	1;
	424	0.0	0.0	1.00	90.0600	45.0300	32.4216	0.9	0.85	1000	-1000	1000	0.1	0.01	0	0	1;
	1252	0.0	0.0	1.00	89.0070	44.5035	32.0425	0.9	0.85	1000	-1000	1000	0.1	0.01	0	0	1;
	350	0.0	0.0	1.00	87.2085	43.6043	31.3951	0.9	0.85	1000	-1000	1000	0.1	0.01	0	0	1;
	1719	0.0	0.0	1.00	86.0535	43.0267	30.9793	0.9	0.85	1000	-1000	1000	0.1	0.01	0	0	1;
	3155	0.0	0.0	1.00	80.1300	40.0650	28.8468	0.9	0.85	1000	-1000	1000	0.1	0.01	0	0	1;
	874	0.0	0.0	1.00	75.7725	37.8863	27.2781	0.9	0.85	1000	-1000	1000	0.1	0.01	0	0	1;
	76118	0.0	0.0	1.00	75.0000	37.5000	27.0000	0.9	0.85	1000	-1000	1000	0.1	0.01	0	0	1;
	2698	0.0	0.0	1.00	74.3835	37.1917	26.7781	0.9	0.85	1000	-1000	1000	0.1	0.01	0	0	1;
	689	0.0	0.0	1.00	74.1150	37.0575	26.6814	0.9	0.85	1000	-1000	1000	0.1	0.01	0	0	1;
	2477	0.0	0.0	1.00	73.7100	36.8550	26.5356	0.9	0.85	1000	-1000	1000	0.1	0.01	0	0	1;
	2081	0.0	0.0	1.00	71.9115	35.9558	25.8881	0.9	0.85	1000	-1000	1000	0.1	0.01	0	0	1;
	755	0.0	0.0	1.00	69.6435	34.8218	25.0717	0.9	0.85	1000	-1000	1000	0.1	0.01	0	0	1;
	2264	0.0	0.0	1.00	68.7960	34.3980	24.7666	0.9	0.85	1000	-1000	1000	0.1	0.01	0	0	1;
	1953	0.0	0.0	1.00	68.7810	34.3905	24.7612	0.9	0.85	1000	-1000	1000	0.1	0.01	0	0	1;
	1940	0.0	0.0	1.00	68.2995	34.1497	24.5878	0.9	0.85	1000	-1000	1000	0.1	0.01	0	0	1;
	1310	0.0	0.0	1.00	67.6845	33.8422	24.3664	0.9	0.85	1000	-1000	1000	0.1	0.01	0	0	1;
	750	0.0	0.0	1.00	67.2750	33.6375	24.2190	0.9	0.85	1000	-1000	1000	0.1	0.01	0	0	1;
	1405	0.0	0.0	1.00	66.9090	33.4545	24.0872	0.9	0.85	1000	-1000	1000	0.1	0.01	0	0	1;
	3040	0.0	0.0	1.00	65.8860	32.9430	23.7190	0.9	0.85	1000	-1000	1000	0.1	0.01	0	0	1;
	273	0.0	0.0	1.00	65.1540	32.5770	23.4554	0.9	0.85	1000	-1000	1000	0.1	0.01	0	0	1;
	1179	0.0	0.0	1.00	62.5800	31.2900	22.5288	0.9	0.85	1000	-1000	1000	0.1	0.01	0	0	1;
	295	0.0	0.0	1.00	62.1420	31.0710	22.3711	0.9	0.85	1000	-1000	1000	0.1	0.01	0	0	1;
	2744	0.0	0.0	1.00	62.0385	31.0192	22.3339	0.9	0.85	1000	-1000	1000	0.1	0.01	0	0	1;
	1061	0.0	0.0	1.00	61.7610	30.8805	22.2340	0.9	0.85	1000	-1000	1000	0.1	0.01	0	0	1;
	1286	0.0	0.0	1.00	61.1910	30.5955	22.0288	0.9	0.85	1000	-1000	1000	0.1	0.01	0	0	1;
	2853	0.0	0.0	1.00	61.0740	30.5370	21.9866	0.9	0.85	1000	-1000	1000	0.1	0.01	0	0	1;
	1930	0.0	0.0	1.00	60.3870	30.1935	21.7393	0.9	0.85	1000	-1000	1000	0.1	0.01	0	0	1;
	272	0.0	0.0	1.00	60.0945	30.0473	21.6340	0.9	0.85	1000	-1000	1000	0.1	0.01	0	0	1;
	3241	0.0	0.0	1.00	59.6700	29.8350	21.4812	0.9	0.85	1000	-1000	1000	0.1	0.01	0	0	1;
	2911	0.0	0.0	1.00	59.6550	29.8275	21.4758	0.9	0.85	1000	-1000	1000	0.1	0.01	0	0	1;
	1110	0.0	0.0	1.00	59.6115	29.8057	21.4601	0.9	0.85	1000	-1000	1000	0.1	0.01	0	0	1;
	1785	0.0	0.0	1.00	59.2905	29.6453	21.3446	0.9	0.85	1000	-1000	1000	0.1	0.01	0	0	1;
	2446	0.0	0.0	1.00	58.0755	29.0377	20.9072	0.9	0.85	1000	-1000	1000	0.1	0.01	0	0	1;
	1090	0.0	0.0	1.00	58.0470	29.0235	20.8969	0.9	0.85	1000	-1000	1000	0.1	0.01	0	0	1;
	1038	0.0	0.0	1.00	57.3015	28.6508	20.6285	0.9	0.85	1000	-1000	1000	0.1	0.01	0	0	1;
	2428	0.0	0.0	1.00	56.8770	28.4385	20.4757	0.9	0.85	1000	-1000	1000	0.1	0.01	0	0	1;
	1477	0.0	0.0	1.00	56.3505	28.1752	20.2862	0.9	0.85	1000	-1000	1000	0.1	0.01	0	0	1;
	2476	0.0	0.0	1.00	56.3205	28.1602	20.2754	0.9	0.85	1000	-1000	1000	0.1	0.01	0	0	1;
	1002	0.0	0.0	1.00	55.5600	27.7800	20.0016	0.9	0.85	1000	-1000	1000	0.1	0.01	0	0	1;
	1693	0.0	0.0	1.00	55.2240	27.6120	19.8806	0.9	0.85	1000	-1000	1000	0.1	0.01	0	0	1;
	1680	0.0	0.0	1.00	54.9015	27.4507	19.7645	0.9	0.85	1000	-1000	1000	0.1	0.01	0	0	1;
	1665	0.0	0.0	1.00	54.5955	27.2978	19.6544	0.9	0.85	1000	-1000	1000	0.1	0.01	0	0	1;
	2030	0.0	0.0	1.00	54.4485	27.2242	19.6015	0.9	0.85	1000	-1000	1000	0.1	0.01	0	0	1;
	825	0.0	0.0	1.00	54.0825	27.0412	19.4697	0.9	0.85	1000	-1000	1000	0.1	0.01	0	0	1;
	2031	0.0	0.0	1.00	53.9220	26.9610	19.4119	0.9	0.85	1000	-1000	1000	0.1	0.01	0	0	1;
	503	0.0	0.0	1.00	53.6145	26.8073	19.3012	0.9	0.85	1000	-1000	1000	0.1	0.01	0	0	1;
	793	0.0	0.0	1.00	53.5710	26.7855	19.2856	0.9	0.85	1000	-1000	1000	0.1	0.01	0	0	1;
	160	0.0	0.0	1.00	51.8160	25.9080	18.6538	0.9	0.85	1000	-1000	1000	0.1	0.01	0	0	1;
	2909	0.0	0.0	1.00	51.7725	25.8863	18.6381	0.9	0.85	1000	-1000	1000	0.1	0.01	0	0	1;
	3149	0.0	0.0	1.00	51.7140	25.8570	18.6170	0.9	0.85	1000	-1000	1000	0.1	0.01	0	0	1;
	1789	0.0	0.0	1.00	51.1875	25.5938	18.4275	0.9	0.85	1000	-1000	1000	0.1	0.01	0	0	1;
	1367	0.0	0.0	1.00	50.9970	25.4985	18.3589	0.9	0.85	1000	-1000	1000	0.1	0.01	0	0	1;
	906	0.0	0.0	1.00	50.7630	25.3815	18.2747	0.9	0.85	1000	-1000	1000	0.1	0.01	0	0	1;
	1355	0.0	0.0	1.00	50.7630	25.3815	18.2747	0.9	0.85	1000	-1000	1000	0.1	0.01	0	0	1;
	1261	0.0	0.0	1.00	50.6610	25.3305	18.2380	0.9	0.85	1000	-1000	1000	0.1	0.01	0	0	1;
	492	0.0	0.0	1.00	50.6325	25.3163	18.2277	0.9	0.85	1000	-1000	1000	0.1	0.01	0	0	1;
	397	0.0	0.0	1.00	50.3985	25.1992	18.1435	0.9	0.85	1000	-1000	1000	0.1	0.01	0	0	1;
	3130	0.0	0.0	1.00	50.3100	25.1550	18.1116	0.9	0.85	1000	-1000	1000	0.1	0.01	0	0	1;
	267	0.0	0.0	1.00	49.3155	24.6578	17.7536	0.9	0.85	1000	-1000	1000	0.1	0.01	0	0	1;
	1421	0.0	0.0	1.00	49.0665	24.5332	17.6639	0.9	0.85	1000	-1000	1000	0.1	0.01	0	0	1;
	1462	0.0	0.0	1.00	48.7005	24.3502	17.5322	0.9	0.85	1000	-1000	1000	0.1	0.01	0	0	1;
	829	0.0	0.0	1.00	48.5400	24.2700	17.4744	0.9	0.85	1000	-1000	1000	0.1	0.01	0	0	1;
	1133	0.0	0.0	1.00	47.9550	23.9775	17.2638	0.9	0.85	1000	-1000	1000	0.1	0.01	0	0	1;
	2606	0.0	0.0	1.00	47.5905	23.7952	17.1326	0.9	0.85	1000	-1000	1000	0.1	0.01	0	0	1;
	652	0.0	0.0	1.00	47.4285	23.7142	17.0743	0.9	0.85	1000	-1000	1000	0.1	0.01	0	0	1;
	976	0.0	0.0	1.00	47.3415	23.6707	17.0429	0.9	0.85	1000	-1000	1000	0.1	0.01	0	0	1;
	2106	0.0	0.0	1.00	46.9320	23.4660	16.8955	0.9	0.85	1000	-1000	1000	0.1	0.01	0	0	1;
	2974	0.0	0.0	1.00	46.8585	23.4292	16.8691	0.9	0.85	1000	-1000	1000	0.1	0.01	0	0	1;
	2082	0.0	0.0	1.00	46.7265	23.3633	16.8215	0.9	0.85	1000	-1000	1000	0.1	0.01	0	0	1;
	1920	0.0	0.0	1.00	46.4055	23.2028	16.7060	0.9	0.85	1000	-1000	1000	0.1	0.01	0	0	1;
	2057	0.0	0.0	1.00	46.3905	23.1953	16.7006	0.9	0.85	1000	-1000	1000	0.1	0.01	0	0	1;
	2471	0.0	0.0	1.00	46.3170	23.1585	16.6741	0.9	0.85	1000	-1000	1000	0.1	0.01	0	0	1;
	1438	0.0	0.0	1.00	46.1415	23.0708	16.6109	0.9	0.85	1000	-1000	1000	0.1	0.01	0	0	1;
	2728	0.0	0.0	1.00	46.1265	23.0633	16.6055	0.9	0.85	1000	-1000	1000	0.1	0.01	0	0	1;
	1247	0.0	0.0	1.00	46.0830	23.0415	16.5899	0.9	0.85	1000	-1000	1000	0.1	0.01	0	0	1;
	1919	0.0	0.0	1.00	46.0830	23.0415	16.5899	0.9	0.85	1000	-1000	1000	0.1	0.01	0	0	1;
	1188	0.0	0.0	1.00	45.9960	22.9980	16.5586	0.9	0.85	1000	-1000	1000	0.1	0.01	0	0	1;
	234	0.0	0.0	1.00	45.8640	22.9320	16.5110	0.9	0.85	1000	-1000	1000	0.1	0.01	0	0	1;
	484	0.0	0.0	1.00	45.4200	22.7100	16.3512	0.9	0.85	1000	-1000	1000	0.1	0.01	0	0	1;
	1240	0.0	0.0	1.00	45.2505	22.6253	16.2902	0.9	0.85	1000	-1000	1000	0.1	0.01	0	0	1;
	423	0.0	0.0	1.00	45.2250	22.6125	16.2810	0.9	0.85	1000	-1000	1000	0.1	0.01	0	0	1;
	2038	0.0	0.0	1.00	43.5240	21.7620	15.6686	0.9	0.85	1000	-1000	1000	0.1	0.01	0	0	1;
	527	0.0	0.0	1.00	43.4655	21.7327	15.6476	0.9	0.85	1000	-1000	1000	0.1	0.01	0	0	1;
	3482	0.0	0.0	1.00	43.3635	21.6818	15.6109	0.9	0.85	1000	-1000	1000	0.1	0.01	0	0	1;
	1951	0.0	0.0	1.00	43.2165	21.6082	15.5579	0.9	0.85	1000	-1000	1000	0.1	0.01	0	0	1;
	1212	0.0	0.0	1.00	43.2030	21.6015	15.5531	0.9	0.85	1000	-1000	1000	0.1	0.01	0	0	1;
	1420	0.0	0.0	1.00	42.9390	21.4695	15.4580	0.9	0.85	1000	-1000	1000	0.1	0.01	0	0	1;
	2234	0.0	0.0	1.00	42.5580	21.2790	15.3209	0.9	0.85	1000	-1000	1000	0.1	0.01	0	0	1;
	1518	0.0	0.0	1.00	42.1635	21.0817	15.1789	0.9	0.85	1000	-1000	1000	0.1	0.01	0	0	1;
	447	0.0	0.0	1.00	42.0180	21.0090	15.1265	0.9	0.85	1000	-1000	1000	0.1	0.01	0	0	1;
	2780	0.0	0.0	1.00	41.8710	20.9355	15.0736	0.9	0.85	1000	-1000	1000	0.1	0.01	0	0	1;
	841	0.0	0.0	1.00	41.3160	20.6580	14.8738	0.9	0.85	1000	-1000	1000	0.1	0.01	0	0	1;
	1208	0.0	0.0	1.00	41.2275	20.6137	14.8419	0.9	0.85	1000	-1000	1000	0.1	0.01	0	0	1;
	1771	0.0	0.0	1.00	41.2275	20.6137	14.8419	0.9	0.85	1000	-1000	1000	0.1	0.01	0	0	1;
	2121	0.0	0.0	1.00	41.1405	20.5703	14.8106	0.9	0.85	1000	-1000	1000	0.1	0.01	0	0	1;
	2852	0.0	0.0	1.00	40.9935	20.4967	14.7577	0.9	0.85	1000	-1000	1000	0.1	0.01	0	0	1;
	2268	0.0	0.0	1.00	40.9065	20.4533	14.7263	0.9	0.85	1000	-1000	1000	0.1	0.01	0	0	1;
	2495	0.0	0.0	1.00	40.6575	20.3287	14.6367	0.9	0.85	1000	-1000	1000	0.1	0.01	0	0	1;
	2625	0.0	0.0	1.00	40.5990	20.2995	14.6156	0.9	0.85	1000	-1000	1000	0.1	0.01	0	0	1;
	2040	0.0	0.0	1.00	40.5840	20.2920	14.6102	0.9	0.85	1000	-1000	1000	0.1	0.01	0	0	1;
	2228	0.0	0.0	1.00	40.5690	20.2845	14.6048	0.9	0.85	1000	-1000	1000	0.1	0.01	0	0	1;
	271	0.0	0.0	1.00	40.3215	20.1608	14.5157	0.9	0.85	1000	-1000	1000	0.1	0.01	0	0	1;
	1087	0.0	0.0	1.00	40.0575	20.0287	14.4207	0.9	0.85	1000	-1000	1000	0.1	0.01	0	0	1;
	1273	0.0	0.0	1.00	39.7365	19.8682	14.3051	0.9	0.85	1000	-1000	1000	0.1	0.01	0	0	1;
	457	0.0	0.0	1.00	39.6915	19.8457	14.2889	0.9	0.85	1000	-1000	1000	0.1	0.01	0	0	1;
	2890	0.0	0.0	1.00	39.4440	19.7220	14.1998	0.9	0.85	1000	-1000	1000	0.1	0.01	0	0	1;
	1037	0.0	0.0	1.00	39.1665	19.5832	14.0999	0.9	0.85	1000	-1000	1000	0.1	0.01	0	0	1;
	3107	0.0	0.0	1.00	38.7270	19.3635	13.9417	0.9	0.85	1000	-1000	1000	0.1	0.01	0	0	1;
	1551	0.0	0.0	1.00	38.6970	19.3485	13.9309	0.9	0.85	1000	-1000	1000	0.1	0.01	0	0	1;
	2253	0.0	0.0	1.00	38.6835	19.3418	13.9261	0.9	0.85	1000	-1000	1000	0.1	0.01	0	0	1;
	1801	0.0	0.0	1.00	38.6535	19.3267	13.9153	0.9	0.85	1000	-1000	1000	0.1	0.01	0	0	1;
	1655	0.0	0.0	1.00	38.4630	19.2315	13.8467	0.9	0.85	1000	-1000	1000	0.1	0.01	0	0	1;
	888	0.0	0.0	1.00	38.3025	19.1513	13.7889	0.9	0.85	1000	-1000	1000	0.1	0.01	0	0	1;
	1442	0.0	0.0	1.00	38.1420	19.0710	13.7311	0.9	0.85	1000	-1000	1000	0.1	0.01	0	0	1;
	1288	0.0	0.0	1.00	38.0550	19.0275	13.6998	0.9	0.85	1000	-1000	1000	0.1	0.01	0	0	1;
	3362	0.0	0.0	1.00	38.0100	19.0050	13.6836	0.9	0.85	1000	-1000	1000	0.1	0.01	0	0	1;
	1300	0.0	0.0	1.00	37.9365	18.9683	13.6571	0.9	0.85	1000	-1000	1000	0.1	0.01	0	0	1;
	953	0.0	0.0	1.00	37.8930	18.9465	13.6415	0.9	0.85	1000	-1000	1000	0.1	0.01	0	0	1;
	2026	0.0	0.0	1.00	37.6890	18.8445	13.5680	0.9	0.85	1000	-1000	1000	0.1	0.01	0	0	1;
	1044	0.0	0.0	1.00	37.6440	18.8220	13.5518	0.9	0.85	1000	-1000	1000	0.1	0.01	0	0	1;
	2628	0.0	0.0	1.00	37.6005	18.8002	13.5362	0.9	0.85	1000	-1000	1000	0.1	0.01	0	0	1;
	1901	0.0	0.0	1.00	37.5570	18.7785	13.5205	0.9	0.85	1000	-1000	1000	0.1	0.01	0	0	1;
	1447	0.0	0.0	1.00	37.5420	18.7710	13.5151	0.9	0.85	1000	-1000	1000	0.1	0.01	0	0	1;
	2676	0.0	0.0	1.00	37.4250	18.7125	13.4730	0.9	0.85	1000	-1000	1000	0.1	0.01	0	0	1;
	2145	0.0	0.0	1.00	37.4100	18.7050	13.4676	0.9	0.85	1000	-1000	1000	0.1	0.01	0	0	1;
	537	0.0	0.0	1.00	37.1325	18.5663	13.3677	0.9	0.85	1000	-1000	1000	0.1	0.01	0	0	1;
	1584	0.0	0.0	1.00	36.9720	18.4860	13.3099	0.9	0.85	1000	-1000	1000	0.1	0.01	0	0	1;
	170	0.0	0.0	1.00	36.9570	18.4785	13.3045	0.9	0.85	1000	-1000	1000	0.1	0.01	0	0	1;
	2579	0.0	0.0	1.00	36.9570	18.4785	13.3045	0.9	0.85	1000	-1000	1000	0.1	0.01	0	0	1;
	900	0.0	0.0	1.00	36.9135	18.4567	13.2889	0.9	0.85	1000	-1000	1000	0.1	0.01	0	0	1;
	2292	0.0	0.0	1.00	36.8700	18.4350	13.2732	0.9	0.85	1000	-1000	1000	0.1	0.01	0	0	1;
	3292	0.0	0.0	1.00	36.8115	18.4058	13.2521	0.9	0.85	1000	-1000	1000	0.1	0.01	0	0	1;
	421	0.0	0.0	1.00	36.7815	18.3908	13.2413	0.9	0.85	1000	-1000	1000	0.1	0.01	0	0	1;
	2198	0.0	0.0	1.00	36.7815	18.3908	13.2413	0.9	0.85	1000	-1000	1000	0.1	0.01	0	0	1;
	2882	0.0	0.0	1.00	36.7380	18.3690	13.2257	0.9	0.85	1000	-1000	1000	0.1	0.01	0	0	1;
	470	0.0	0.0	1.00	36.6945	18.3473	13.2100	0.9	0.85	1000	-1000	1000	0.1	0.01	0	0	1;
	237	0.0	0.0	1.00	36.5925	18.2963	13.1733	0.9	0.85	1000	-1000	1000	0.1	0.01	0	0	1;
	1642	0.0	0.0	1.00	36.5775	18.2888	13.1679	0.9	0.85	1000	-1000	1000	0.1	0.01	0	0	1;
	3074	0.0	0.0	1.00	36.5775	18.2888	13.1679	0.9	0.85	1000	-1000	1000	0.1	0.01	0	0	1;
	3039	0.0	0.0	1.00	36.4890	18.2445	13.1360	0.9	0.85	1000	-1000	1000	0.1	0.01	0	0	1;
	1585	0.0	0.0	1.00	36.4605	18.2302	13.1258	0.9	0.85	1000	-1000	1000	0.1	0.01	0	0	1;
	1939	0.0	0.0	1.00	36.4605	18.2302	13.1258	0.9	0.85	1000	-1000	1000	0.1	0.01	0	0	1;
	1138	0.0	0.0	1.00	36.4455	18.2228	13.1204	0.9	0.85	1000	-1000	1000	0.1	0.01	0	0	1;
	2039	0.0	0.0	1.00	36.0945	18.0472	12.9940	0.9	0.85	1000	-1000	1000	0.1	0.01	0	0	1;
	1691	0.0	0.0	1.00	35.9490	17.9745	12.9416	0.9	0.85	1000	-1000	1000	0.1	0.01	0	0	1;
	2939	0.0	0.0	1.00	35.5530	17.7765	12.7991	0.9	0.85	1000	-1000	1000	0.1	0.01	0	0	1;
	2836	0.0	0.0	1.00	34.9245	17.4623	12.5728	0.9	0.85	1000	-1000	1000	0.1	0.01	0	0	1;
	2422	0.0	0.0	1.00	34.8360	17.4180	12.5410	0.9	0.85	1000	-1000	1000	0.1	0.01	0	0	1;
	312	0.0	0.0	1.00	34.7790	17.3895	12.5204	0.9	0.85	1000	-1000	1000	0.1	0.01	0	0	1;
	1889	0.0	0.0	1.00	34.7790	17.3895	12.5204	0.9	0.85	1000	-1000	1000	0.1	0.01	0	0	1;
	2603	0.0	0.0	1.00	34.7640	17.3820	12.5150	0.9	0.85	1000	-1000	1000	0.1	0.01	0	0	1;
	3047	0.0	0.0	1.00	34.7640	17.3820	12.5150	0.9	0.85	1000	-1000	1000	0.1	0.01	0	0	1;
	2462	0.0	0.0	1.00	34.6020	17.3010	12.4567	0.9	0.85	1000	-1000	1000	0.1	0.01	0	0	1;
	2423	0.0	0.0	1.00	34.4850	17.2425	12.4146	0.9	0.85	1000	-1000	1000	0.1	0.01	0	0	1;
	162	0.0	0.0	1.00	34.4130	17.2065	12.3887	0.9	0.85	1000	-1000	1000	0.1	0.01	0	0	1;
	731	0.0	0.0	1.00	34.2225	17.1113	12.3201	0.9	0.85	1000	-1000	1000	0.1	0.01	0	0	1;
	3374	0.0	0.0	1.00	34.1640	17.0820	12.2990	0.9	0.85	1000	-1000	1000	0.1	0.01	0	0	1;
	632	0.0	0.0	1.00	34.1205	17.0602	12.2834	0.9	0.85	1000	-1000	1000	0.1	0.01	0	0	1;
	1173	0.0	0.0	1.00	34.0905	17.0452	12.2726	0.9	0.85	1000	-1000	1000	0.1	0.01	0	0	1;
	1134	0.0	0.0	1.00	34.0035	17.0018	12.2413	0.9	0.85	1000	-1000	1000	0.1	0.01	0	0	1;
	1793	0.0	0.0	1.00	34.0035	17.0018	12.2413	0.9	0.85	1000	-1000	1000	0.1	0.01	0	0	1;
	2946	0.0	0.0	1.00	33.9885	16.9943	12.2359	0.9	0.85	1000	-1000	1000	0.1	0.01	0	0	1;
	3005	0.0	0.0	1.00	33.9735	16.9868	12.2305	0.9	0.85	1000	-1000	1000	0.1	0.01	0	0	1;
	263	0.0	0.0	1.00	33.9450	16.9725	12.2202	0.9	0.85	1000	-1000	1000	0.1	0.01	0	0	1;
	1249	0.0	0.0	1.00	33.8415	16.9207	12.1829	0.9	0.85	1000	-1000	1000	0.1	0.01	0	0	1;
	2901	0.0	0.0	1.00	33.6960	16.8480	12.1306	0.9	0.85	1000	-1000	1000	0.1	0.01	0	0	1;
	1214	0.0	0.0	1.00	33.6675	16.8338	12.1203	0.9	0.85	1000	-1000	1000	0.1	0.01	0	0	1;
	1157	0.0	0.0	1.00	33.6090	16.8045	12.0992	0.9	0.85	1000	-1000	1000	0.1	0.01	0	0	1;
	343	0.0	0.0	1.00	33.5205	16.7602	12.0674	0.9	0.85	1000	-1000	1000	0.1	0.01	0	0	1;
	1412	0.0	0.0	1.00	33.4470	16.7235	12.0409	0.9	0.85	1000	-1000	1000	0.1	0.01	0	0	1;
	2296	0.0	0.0	1.00	33.1845	16.5922	11.9464	0.9	0.85	1000	-1000	1000	0.1	0.01	0	0	1;
	1946	0.0	0.0	1.00	33.1260	16.5630	11.9254	0.9	0.85	1000	-1000	1000	0.1	0.01	0	0	1;
	1753	0.0	0.0	1.00	32.9940	16.4970	11.8778	0.9	0.85	1000	-1000	1000	0.1	0.01	0	0	1;
	2357	0.0	0.0	1.00	32.9790	16.4895	11.8724	0.9	0.85	1000	-1000	1000	0.1	0.01	0	0	1;
	974	0.0	0.0	1.00	32.8035	16.4017	11.8093	0.9	0.85	1000	-1000	1000	0.1	0.01	0	0	1;
	1662	0.0	0.0	1.00	32.8035	16.4017	11.8093	0.9	0.85	1000	-1000	1000	0.1	0.01	0	0	1;
	3433	0.0	0.0	1.00	32.7315	16.3658	11.7833	0.9	0.85	1000	-1000	1000	0.1	0.01	0	0	1;
	3008	0.0	0.0	1.00	32.5260	16.2630	11.7094	0.9	0.85	1000	-1000	1000	0.1	0.01	0	0	1;
	2694	0.0	0.0	1.00	32.4375	16.2188	11.6775	0.9	0.85	1000	-1000	1000	0.1	0.01	0	0	1;
	1602	0.0	0.0	1.00	32.3940	16.1970	11.6618	0.9	0.85	1000	-1000	1000	0.1	0.01	0	0	1;
	2637	0.0	0.0	1.00	32.2485	16.1242	11.6095	0.9	0.85	1000	-1000	1000	0.1	0.01	0	0	1;
	3459	0.0	0.0	1.00	32.2335	16.1167	11.6041	0.9	0.85	1000	-1000	1000	0.1	0.01	0	0	1;
	1141	0.0	0.0	1.00	32.0580	16.0290	11.5409	0.9	0.85	1000	-1000	1000	0.1	0.01	0	0	1;
	2305	0.0	0.0	1.00	31.8540	15.9270	11.4674	0.9	0.85	1000	-1000	1000	0.1	0.01	0	0	1;
	2223	0.0	0.0	1.00	31.8090	15.9045	11.4512	0.9	0.85	1000	-1000	1000	0.1	0.01	0	0	1;
	2612	0.0	0.0	1.00	31.8090	15.9045	11.4512	0.9	0.85	1000	-1000	1000	0.1	0.01	0	0	1;
	563	0.0	0.0	1.00	31.7655	15.8827	11.4356	0.9	0.85	1000	-1000	1000	0.1	0.01	0	0	1;
	3174	0.0	0.0	1.00	31.7655	15.8827	11.4356	0.9	0.85	1000	-1000	1000	0.1	0.01	0	0	1;
	707	0.0	0.0	1.00	31.7220	15.8610	11.4199	0.9	0.85	1000	-1000	1000	0.1	0.01	0	0	1;
	3060	0.0	0.0	1.00	31.6200	15.8100	11.3832	0.9	0.85	1000	-1000	1000	0.1	0.01	0	0	1;
	434	0.0	0.0	1.00	31.4880	15.7440	11.3357	0.9	0.85	1000	-1000	1000	0.1	0.01	0	0	1;
	2311	0.0	0.0	1.00	31.4145	15.7073	11.3092	0.9	0.85	1000	-1000	1000	0.1	0.01	0	0	1;
	3129	0.0	0.0	1.00	31.2240	15.6120	11.2406	0.9	0.85	1000	-1000	1000	0.1	0.01	0	0	1;
	2984	0.0	0.0	1.00	31.1370	15.5685	11.2093	0.9	0.85	1000	-1000	1000	0.1	0.01	0	0	1;
	2378	0.0	0.0	1.00	31.0050	15.5025	11.1618	0.9	0.85	1000	-1000	1000	0.1	0.01	0	0	1;
...
];

%% branch data
%	fbus	tbus	r	x	b	rateA	rateB	rateC	ratio	angle	status	angmin	angmax
mpc.branch = [
	1	 650	 0.0440029	 0.231829	 0.00416148	 96.0	 96.0	 129.0	 0.0	 0.0	 1	 -30.0	 30.0;
	1	 903	 0.0065188	 0.0661654	 0.00134025	 154.0	 154.0	 199.0	 0.0	 0.0	 1	 -30.0	 30.0;
	1	 905	 0.00333213	 0.0364493	 0.000759498	 162.0	 162.0	 199.0	 0.0	 0.0	 1	 -30.0	 30.0;
	2	 683	 0.00217379	 0.00836299	 0.00228418	 159.0	 159.0	 159.0	 0.0	 0.0	 1	 -30.0	 30.0;
	2	 75692	 0.000794052	 0.00603894	 0.00189761	 253.0	 259.0	 259.0	 0.0	 0.0	 1	 -30.0	 30.0;
	2	 75693	 0.00171474	 0.00963476	 0.00285464	 207.0	 211.0	 211.0	 0.0	 0.0	 1	 -30.0	 30.0;
	2	 75696	 0.000335965	 0.00356044	 0.00105683	 307.0	 307.0	 307.0	 0.0	 0.0	 1	 -30.0	 30.0;
	3	 6	 0.000176282	 0.00201502	 3.8408e-05	 162.0	 162.0	 199.0	 0.0	 0.0	 1	 -30.0	 30.0;
	3	 236	 0.000999816	 0.0101479	 0.000205553	 154.0	 154.0	 199.0	 0.0	 0.0	 1	 -30.0	 30.0;
	4	 12	 0.00416723	 0.0203445	 0.000426326	 96.0	 96.0	 129.0	 0.0	 0.0	 1	 -30.0	 30.0;
	4	 276	 0.0224763	 0.0550162	 0.000940668	 59.0	 59.0	 99.0	 0.0	 0.0	 1	 -30.0	 30.0;
	4	 279	 0.0107478	 0.0284044	 0.000415527	 59.0	 59.0	 99.0	 0.0	 0.0	 1	 -30.0	 30.0;
	4	 280	 0.00392264	 0.0429089	 0.000894099	 162.0	 162.0	 199.0	 0.0	 0.0	 1	 -30.0	 30.0;
	5	 952	 0.00413977	 0.0227157	 0.00600443	 193.0	 193.0	 193.0	 0.0	 0.0	 1	 -30.0	 30.0;
	5	 75764	 0.0101647	 0.0258509	 0.00654076	 118.0	 118.0	 118.0	 0.0	 0.0	 1	 -30.0	 30.0;
	5	 75765	 0.00107397	 0.0129703	 0.00735527	 523.0	 523.0	 523.0	 0.0	 0.0	 1	 -30.0	 30.0;
	6	 235	 0.00630091	 0.0166521	 0.000243603	 59.0	 59.0	 99.0	 0.0	 0.0	 1	 -30.0	 30.0;
	6	 236	 0.00134834	 0.00934307	 0.000192108	 119.0	 119.0	 149.0	 0.0	 0.0	 1	 -30.0	 30.0;
	6	 237	 0.00099799	 0.0100539	 0.000247701	 162.0	 162.0	 199.0	 0.0	 0.0	 1	 -30.0	 30.0;
	6	 268	 0.00525814	 0.0231672	 0.00040241	 88.0	 88.0	 129.0	 0.0	 0.0	 1	 -30.0	 30.0;
	7	 623	 0.0164766	 0.0763537	 0.00146439	 92.0	 92.0	 129.0	 0.0	 0.0	 1	 -30.0	 30.0;
	7	 625	 0.0190739	 0.0763651	 0.00120242	 80.0	 80.0	 129.0	 0.0	 0.0	 1	 -30.0	 30.0;
	7	 630	 0.0259444	 0.0685671	 0.00100308	 59.0	 59.0	 99.0	 0.0	 0.0	 1	 -30.0	 30.0;
	7	 631	 0.0259797	 0.0737234	 0.00115837	 64.0	 64.0	 119.0	 0.0	 0.0	 1	 -30.0	 30.0;
	8	 812	 0.0016434	 0.0104086	 0.000176556	 110.0	 110.0	 139.0	 0.0	 0.0	 1	 -30.0	 30.0;
	8	 821	 0.00505125	 0.0133495	 0.00019529	 59.0	 59.0	 99.0	 0.0	 0.0	 1	 -30.0	 30.0;
	8	 822	 0.0103604	 0.0266324	 0.000412168	 59.0	 59.0	 99.0	 0.0	 0.0	 1	 -30.0	 30.0;
	8	 825	 0.0132758	 0.0478046	 0.000648196	 71.0	 71.0	 119.0	 0.0	 0.0	 1	 -30.0	 30.0;
	9	 733	 0.0267622	 0.068061	 0.00107627	 59.0	 59.0	 99.0	 0.0	 0.0	 1	 -30.0	 30.0;
	9	 753	 0.00613338	 0.015598	 0.000246653	 59.0	 59.0	 99.0	 0.0	 0.0	 1	 -30.0	 30.0;
	9	 754	 0.00187384	 0.0204974	 0.000427105	 162.0	 162.0	 199.0	 0.0	 0.0	 1	 -30.0	 30.0;
	9	 761	 0.0289722	 0.0736814	 0.00116515	 59.0	 59.0	 99.0	 0.0	 0.0	 1	 -30.0	 30.0;
	10	 857	 0.0494122	 0.120953	 0.00206815	 59.0	 59.0	 99.0	 0.0	 0.0	 1	 -30.0	 30.0;
	10	 900	 0.0262592	 0.0845586	 0.00144043	 71.0	 71.0	 119.0	 0.0	 0.0	 1	 -30.0	 30.0;
	10	 902	 0.0107217	 0.0283354	 0.000414519	 59.0	 59.0	 99.0	 0.0	 0.0	 1	 -30.0	 30.0;
...